data/pglib_opf_case2853_sdet_storage.m
%%%%%%%%%%%%%%%%%%%%%%%%%%%%%%%%%%%%%%%%%%%%%%%%%%%%%%%%%%%%%%%%%%%%%%%%%%%
%%%%                                                                  %%%%%
%%%%    IEEE PES Power Grid Library - Optimal Power Flow - v23.07     %%%%%
%%%%          (https://github.com/power-grid-lib/pglib-opf)           %%%%%
%%%%               Benchmark Group - Typical Operations               %%%%%
%%%%                         23 - July - 2023                         %%%%%
%%%%                                                                  %%%%%
%%%%%%%%%%%%%%%%%%%%%%%%%%%%%%%%%%%%%%%%%%%%%%%%%%%%%%%%%%%%%%%%%%%%%%%%%%%
%
%   A 2853 bus model created by the Sustainable Data Evolution Technology (SDET)
%   tool.
%
%   https://egriddata.org/group/sustainable-data-evolution-technology-sdet
%
%   Developed by Renke Huang,
%   Pacific Northwest National Laboratory, U.S.A.
%   Provided in the public domain. June, 2018
%
% Modified to have additional storage capacity and increased gencost
function mpc = pglib_opf_case2853_sdet
mpc.version = '2';
mpc.baseMVA = 100.0;

%% bus data
%	bus_i	type	Pd	Qd	Gs	Bs	area	Vm	Va	baseKV	zone	Vmax	Vmin
mpc.bus = [
	1	 1	 0.1	 -1.05	 0.0	 4.11	 1	    1.00000	    0.00000	 138.0	 1	    1.10000	    0.90000;
	2	 2	 0.0	 0.0	 0.0	 0.0	 1	    1.00000	    0.00000	 20.0	 1	    1.10000	    0.90000;
	3	 1	 -7.61	 2.37	 0.0	 0.0	 1	    1.00000	    0.00000	 138.0	 1	    1.10000	    0.90000;
	4	 1	 0.1	 -0.34	 0.0	 0.0	 1	    1.00000	    0.00000	 138.0	 1	    1.10000	    0.90000;
	5	 1	 0.1	 -0.19	 0.0	 0.0	 1	    1.00000	    0.00000	 138.0	 1	    1.10000	    0.90000;
	6	 2	 0.0	 0.0	 0.0	 0.0	 1	    1.00000	    0.00000	 20.0	 1	    1.10000	    0.90000;
	7	 1	 -19.32	 6.4	 0.0	 0.0	 1	    1.00000	    0.00000	 138.0	 1	    1.10000	    0.90000;
	8	 1	 -41.65	 13.4	 0.0	 0.0	 1	    1.00000	    0.00000	 138.0	 1	    1.10000	    0.90000;
	9	 1	 0.1	 -0.24	 0.0	 0.0	 1	    1.00000	    0.00000	 138.0	 1	    1.10000	    0.90000;
	10	 2	 -6.7	 -8.98	 0.0	 0.0	 1	    1.00000	    0.00000	 138.0	 1	    1.10000	    0.90000;
	11	 1	 96.28	 -2.53	 0.0	 0.0	 1	    1.00000	    0.00000	 138.0	 1	    1.10000	    0.90000;
	12	 2	 -10.41	 -7.41	 0.0	 38.43	 1	    1.00000	    0.00000	 138.0	 1	    1.10000	    0.90000;
	13	 1	 0.1	 0.08	 0.0	 0.0	 1	    1.00000	    0.00000	 138.0	 1	    1.10000	    0.90000;
	14	 1	 0.1	 -2.08	 0.0	 0.0	 1	    1.00000	    0.00000	 138.0	 1	    1.10000	    0.90000;
	15	 2	 0.0	 0.0	 0.0	 0.0	 1	    1.00000	    0.00000	 20.0	 1	    1.10000	    0.90000;
	16	 2	 0.0	 0.0	 0.0	 0.0	 1	    1.00000	    0.00000	 20.0	 1	    1.10000	    0.90000;
	17	 2	 0.1	 -1.53	 0.0	 28.75	 1	    1.00000	    0.00000	 138.0	 1	    1.10000	    0.90000;
	18	 1	 119.1	 59.5	 0.0	 21.06	 1	    1.00000	    0.00000	 138.0	 1	    1.10000	    0.90000;
	19	 1	 32.84	 13.07	 0.0	 5.26	 1	    1.00000	    0.00000	 138.0	 1	    1.10000	    0.90000;
	20	 1	 -0.54	 -5.8	 0.0	 0.0	 1	    1.00000	    0.00000	 138.0	 1	    1.10000	    0.90000;
	21	 1	 -10.71	 2.92	 0.0	 0.0	 1	    1.00000	    0.00000	 138.0	 1	    1.10000	    0.90000;
	22	 1	 0.1	 -4.36	 0.0	 0.0	 1	    1.00000	    0.00000	 138.0	 1	    1.10000	    0.90000;
	23	 1	 0.1	 -2.42	 0.0	 0.0	 1	    1.00000	    0.00000	 138.0	 1	    1.10000	    0.90000;
	24	 2	 0.0	 0.0	 0.0	 0.0	 1	    1.00000	    0.00000	 20.0	 1	    1.10000	    0.90000;
	25	 1	 0.1	 -1.09	 0.0	 1.74	 1	    1.00000	    0.00000	 138.0	 1	    1.10000	    0.90000;
	26	 2	 0.0	 0.0	 0.0	 0.0	 1	    1.00000	    0.00000	 20.0	 1	    1.10000	    0.90000;
	27	 2	 0.0	 0.0	 0.0	 0.0	 1	    1.00000	    0.00000	 20.0	 1	    1.10000	    0.90000;
	28	 1	 0.1	 -0.38	 0.0	 0.0	 1	    1.00000	    0.00000	 138.0	 1	    1.10000	    0.90000;
	29	 1	 160.2	 89.9	 0.0	 0.0	 1	    1.00000	    0.00000	 138.0	 1	    1.10000	    0.90000;
	30	 2	 160.2	 88.7	 0.0	 -5.21	 1	    1.00000	    0.00000	 138.0	 1	    1.10000	    0.90000;
	31	 1	 18.45	 9.5	 0.0	 0.0	 1	    1.00000	    0.00000	 138.0	 1	    1.10000	    0.90000;
	32	 1	 -15.12	 4.75	 0.0	 0.0	 1	    1.00000	    0.00000	 138.0	 1	    1.10000	    0.90000;
	33	 1	 0.1	 -1.32	 0.0	 1.08	 1	    1.00000	    0.00000	 138.0	 1	    1.10000	    0.90000;
	34	 2	 0.0	 0.0	 0.0	 0.0	 1	    1.00000	    0.00000	 20.0	 1	    1.10000	    0.90000;
	35	 1	 0.1	 -3.06	 0.0	 0.0	 1	    1.00000	    0.00000	 138.0	 1	    1.10000	    0.90000;
	36	 1	 0.1	 -1.77	 0.0	 0.0	 1	    1.00000	    0.00000	 138.0	 1	    1.10000	    0.90000;
	37	 1	 0.1	 -0.36	 0.0	 0.0	 1	    1.00000	    0.00000	 138.0	 1	    1.10000	    0.90000;
	38	 1	 0.0	 0.0	 0.0	 0.0	 1	    1.00000	    0.00000	 138.0	 1	    1.10000	    0.90000;
	39	 1	 0.1	 -0.35	 0.0	 0.0	 1	    1.00000	    0.00000	 138.0	 1	    1.10000	    0.90000;
	40	 1	 0.12	 0.12	 0.0	 0.0	 1	    1.00000	    0.00000	 138.0	 1	    1.10000	    0.90000;
	41	 1	 0.1	 -1.35	 0.0	 0.0	 1	    1.00000	    0.00000	 138.0	 1	    1.10000	    0.90000;
	42	 1	 -20.12	 5.75	 0.0	 0.0	 1	    1.00000	    0.00000	 138.0	 1	    1.10000	    0.90000;
	43	 1	 0.1	 -3.79	 0.0	 0.58	 1	    1.00000	    0.00000	 138.0	 1	    1.10000	    0.90000;
	44	 2	 0.0	 0.0	 0.0	 0.0	 1	    1.00000	    0.00000	 20.0	 1	    1.10000	    0.90000;
	45	 2	 0.0	 0.0	 0.0	 0.0	 1	    1.00000	    0.00000	 20.0	 1	    1.10000	    0.90000;
	46	 1	 0.0	 0.0	 0.0	 0.0	 1	    1.00000	    0.00000	 138.0	 1	    1.10000	    0.90000;
	47	 1	 0.0	 0.0	 0.0	 0.0	 2	    1.00000	    0.00000	 138.0	 2	    1.10000	    0.90000;
	48	 1	 27.05	 -16.5	 0.0	 0.0	 2	    1.00000	    0.00000	 500.0	 2	    1.10000	    0.90000;
	49	 1	 7.71	 13.11	 0.0	 4.18	 2	    1.00000	    0.00000	 138.0	 2	    1.10000	    0.90000;
	50	 1	 0.0	 0.0	 0.0	 0.02	 2	    1.00000	    0.00000	 138.0	 2	    1.10000	    0.90000;
	51	 1	 0.1	 -0.4	 0.0	 0.0	 2	    1.00000	    0.00000	 138.0	 2	    1.10000	    0.90000;
	52	 1	 0.0	 0.0	 0.0	 0.0	 2	    1.00000	    0.00000	 138.0	 2	    1.10000	    0.90000;
	53	 1	 14.8	 -77.73	 0.0	 44.53	 2	    1.00000	    0.00000	 500.0	 2	    1.10000	    0.90000;
	54	 1	 -15.8	 -10.4	 0.0	 0.0	 2	    1.00000	    0.00000	 138.0	 2	    1.10000	    0.90000;
	55	 1	 -15.92	 4.9	 0.0	 0.0	 2	    1.00000	    0.00000	 138.0	 2	    1.10000	    0.90000;
	56	 1	 69.38	 39.78	 0.0	 19.14	 2	    1.00000	    0.00000	 138.0	 2	    1.10000	    0.90000;
	57	 1	 27.05	 7.96	 0.0	 0.0	 2	    1.00000	    0.00000	 138.0	 2	    1.10000	    0.90000;
	58	 1	 0.0	 0.0	 0.0	 0.0	 2	    1.00000	    0.00000	 138.0	 2	    1.10000	    0.90000;
	59	 1	 24.13	 11.14	 0.0	 0.0	 2	    1.00000	    0.00000	 138.0	 2	    1.10000	    0.90000;
	60	 1	 0.1	 -0.5	 0.0	 0.0	 2	    1.00000	    0.00000	 138.0	 2	    1.10000	    0.90000;
	61	 1	 0.1	 -1.78	 0.0	 6.93	 2	    1.00000	    0.00000	 138.0	 2	    1.10000	    0.90000;
	62	 1	 0.0	 0.0	 0.0	 0.0	 2	    1.00000	    0.00000	 138.0	 2	    1.10000	    0.90000;
	63	 1	 0.1	 -0.74	 0.0	 0.0	 2	    1.00000	    0.00000	 138.0	 2	    1.10000	    0.90000;
	64	 2	 413.0	 -361.88	 0.0	 0.0	 2	    1.00000	    0.00000	 500.0	 2	    1.10000	    0.90000;
	65	 2	 0.0	 0.0	 0.0	 0.0	 2	    1.00000	    0.00000	 20.0	 2	    1.10000	    0.90000;
	66	 1	 0.1	 -0.01	 0.0	 0.0	 2	    1.00000	    0.00000	 138.0	 2	    1.10000	    0.90000;
	67	 1	 5.77	 0.96	 0.0	 0.0	 2	    1.00000	    0.00000	 138.0	 2	    1.10000	    0.90000;
	68	 1	 0.1	 -4.87	 0.0	 0.0	 2	    1.00000	    0.00000	 138.0	 2	    1.10000	    0.90000;
	69	 1	 0.1	 -0.74	 0.0	 -19.16	 2	    1.00000	    0.00000	 138.0	 2	    1.10000	    0.90000;
	70	 1	 0.0	 0.0	 0.0	 0.02	 2	    1.00000	    0.00000	 138.0	 2	    1.10000	    0.90000;
	71	 1	 0.1	 -5.45	 0.0	 0.0	 2	    1.00000	    0.00000	 138.0	 2	    1.10000	    0.90000;
	72	 1	 2.2	 -3.95	 0.0	 0.0	 2	    1.00000	    0.00000	 138.0	 2	    1.10000	    0.90000;
	73	 1	 18.52	 7.09	 0.0	 8.15	 2	    1.00000	    0.00000	 138.0	 2	    1.10000	    0.90000;
	74	 1	 0.0	 0.0	 0.0	 0.0	 2	    1.00000	    0.00000	 138.0	 2	    1.10000	    0.90000;
	75	 1	 29.03	 17.98	 0.0	 3.66	 2	    1.00000	    0.00000	 138.0	 2	    1.10000	    0.90000;
	76	 1	 0.1	 -1.43	 0.0	 0.0	 2	    1.00000	    0.00000	 138.0	 2	    1.10000	    0.90000;
	77	 1	 0.1	 -0.87	 0.0	 2.04	 2	    1.00000	    0.00000	 138.0	 2	    1.10000	    0.90000;
	78	 1	 8.71	 4.56	 0.0	 4.24	 2	    1.00000	    0.00000	 138.0	 2	    1.10000	    0.90000;
	79	 1	 -0.57	 -3.27	 0.0	 0.0	 2	    1.00000	    0.00000	 138.0	 2	    1.10000	    0.90000;
	80	 1	 0.1	 -0.23	 0.0	 0.0	 2	    1.00000	    0.00000	 138.0	 2	    1.10000	    0.90000;
	81	 1	 35.94	 20.67	 0.0	 9.96	 2	    1.00000	    0.00000	 138.0	 2	    1.10000	    0.90000;
	82	 2	 0.0	 0.0	 0.0	 0.0	 2	    1.00000	    0.00000	 20.0	 2	    1.10000	    0.90000;
	83	 1	 0.1	 -2.37	 0.0	 0.0	 2	    1.00000	    0.00000	 138.0	 2	    1.10000	    0.90000;
	84	 1	 0.0	 0.0	 0.0	 0.0	 2	    1.00000	    0.00000	 138.0	 2	    1.10000	    0.90000;
	85	 1	 0.1	 -0.73	 0.0	 0.0	 2	    1.00000	    0.00000	 138.0	 2	    1.10000	    0.90000;
	86	 1	 54.98	 -9.33	 0.0	 10.65	 2	    1.00000	    0.00000	 138.0	 2	    1.10000	    0.90000;
	87	 1	 0.1	 -0.15	 0.0	 0.0	 2	    1.00000	    0.00000	 138.0	 2	    1.10000	    0.90000;
	88	 1	 0.1	 -1.55	 0.0	 0.0	 2	    1.00000	    0.00000	 138.0	 2	    1.10000	    0.90000;
	89	 2	 0.0	 0.0	 0.0	 -8.48	 2	    1.00000	    0.00000	 500.0	 2	    1.10000	    0.90000;
	90	 1	 13.72	 8.44	 0.0	 0.0	 2	    1.00000	    0.00000	 138.0	 2	    1.10000	    0.90000;
	91	 1	 39.53	 -28.65	 0.0	 0.0	 2	    1.00000	    0.00000	 138.0	 2	    1.10000	    0.90000;
	92	 1	 -0.57	 -1.0	 0.0	 0.0	 2	    1.00000	    0.00000	 138.0	 2	    1.10000	    0.90000;
	93	 1	 -0.57	 -4.29	 0.0	 0.0	 2	    1.00000	    0.00000	 138.0	 2	    1.10000	    0.90000;
	94	 1	 0.1	 -1.77	 0.0	 0.0	 2	    1.00000	    0.00000	 138.0	 2	    1.10000	    0.90000;
	95	 1	 11.5	 4.37	 0.0	 0.0	 2	    1.00000	    0.00000	 138.0	 2	    1.10000	    0.90000;
	96	 2	 0.0	 0.0	 0.0	 0.0	 2	    1.00000	    0.00000	 20.0	 2	    1.10000	    0.90000;
	97	 1	 -6.11	 1.53	 0.0	 0.0	 3	    1.00000	    0.00000	 138.0	 3	    1.10000	    0.90000;
	98	 1	 0.1	 -19.54	 0.0	 0.0	 3	    1.00000	    0.00000	 138.0	 3	    1.10000	    0.90000;
	99	 1	 0.1	 -26.52	 0.0	 0.0	 3	    1.00000	    0.00000	 138.0	 3	    1.10000	    0.90000;
	100	 1	 0.1	 -29.89	 0.0	 0.0	 3	    1.00000	    0.00000	 138.0	 3	    1.10000	    0.90000;
	101	 1	 0.1	 -22.93	 0.0	 0.0	 3	    1.00000	    0.00000	 138.0	 3	    1.10000	    0.90000;
	102	 1	 -8.41	 1.87	 0.0	 0.0	 3	    1.00000	    0.00000	 138.0	 3	    1.10000	    0.90000;
	103	 1	 0.1	 -15.6	 0.0	 0.0	 3	    1.00000	    0.00000	 138.0	 3	    1.10000	    0.90000;
	104	 1	 -19.62	 26.91	 0.0	 0.0	 3	    1.00000	    0.00000	 138.0	 3	    1.10000	    0.90000;
	105	 2	 -41.25	 13.02	 0.0	 16.09	 3	    1.00000	    0.00000	 138.0	 3	    1.10000	    0.90000;
	106	 1	 0.1	 -29.89	 0.0	 0.0	 3	    1.00000	    0.00000	 138.0	 3	    1.10000	    0.90000;
	107	 1	 33.36	 20.0	 0.0	 0.0	 3	    1.00000	    0.00000	 138.0	 3	    1.10000	    0.90000;
	108	 2	 0.0	 0.0	 0.0	 0.0	 3	    1.00000	    0.00000	 138.0	 3	    1.10000	    0.90000;
	109	 1	 0.1	 7.83	 0.0	 0.0	 3	    1.00000	    0.00000	 138.0	 3	    1.10000	    0.90000;
	110	 1	 0.1	 -1.89	 0.0	 0.0	 3	    1.00000	    0.00000	 138.0	 3	    1.10000	    0.90000;
	111	 1	 13.77	 18.27	 0.0	 0.0	 3	    1.00000	    0.00000	 138.0	 3	    1.10000	    0.90000;
	112	 1	 34.14	 21.1	 0.0	 0.0	 3	    1.00000	    0.00000	 138.0	 3	    1.10000	    0.90000;
	113	 1	 0.1	 -10.07	 0.0	 0.0	 3	    1.00000	    0.00000	 138.0	 3	    1.10000	    0.90000;
	114	 1	 0.0	 0.0	 0.0	 0.0	 3	    1.00000	    0.00000	 138.0	 3	    1.10000	    0.90000;
	115	 1	 -13.32	 19.44	 0.0	 0.0	 3	    1.00000	    0.00000	 138.0	 3	    1.10000	    0.90000;
	116	 1	 0.1	 0.0	 0.0	 0.0	 3	    1.00000	    0.00000	 138.0	 3	    1.10000	    0.90000;
	117	 2	 0.0	 0.0	 0.0	 0.0	 3	    1.00000	    0.00000	 138.0	 3	    1.10000	    0.90000;
	118	 1	 0.1	 -19.08	 0.0	 0.0	 3	    1.00000	    0.00000	 138.0	 3	    1.10000	    0.90000;
	119	 1	 0.0	 0.0	 0.0	 0.0	 3	    1.00000	    0.00000	 138.0	 3	    1.10000	    0.90000;
	120	 1	 37.6	 21.67	 0.0	 0.0	 3	    1.00000	    0.00000	 138.0	 3	    1.10000	    0.90000;
	121	 1	 27.86	 14.21	 0.0	 0.0	 3	    1.00000	    0.00000	 138.0	 3	    1.10000	    0.90000;
	122	 1	 13.72	 -10.96	 0.0	 0.0	 3	    1.00000	    0.00000	 138.0	 3	    1.10000	    0.90000;
	123	 1	 0.1	 -1.89	 0.0	 0.0	 3	    1.00000	    0.00000	 138.0	 3	    1.10000	    0.90000;
	124	 1	 0.1	 -4.32	 0.0	 0.0	 3	    1.00000	    0.00000	 138.0	 3	    1.10000	    0.90000;
	125	 1	 -0.67	 -3.25	 0.0	 0.0	 3	    1.00000	    0.00000	 138.0	 3	    1.10000	    0.90000;
	126	 2	 0.1	 -19.08	 0.0	 0.0	 3	    1.00000	    0.00000	 138.0	 3	    1.10000	    0.90000;
	127	 1	 0.0	 0.0	 0.0	 0.0	 4	    1.00000	    0.00000	 20.0	 4	    1.10000	    0.90000;
	128	 2	 210.5	 27.62	 0.0	 -49.77	 4	    1.00000	    0.00000	 500.0	 4	    1.10000	    0.90000;
	129	 2	 0.0	 0.0	 0.0	 0.0	 4	    1.00000	    0.00000	 20.0	 4	    1.10000	    0.90000;
	130	 2	 0.0	 0.0	 0.0	 0.0	 4	    1.00000	    0.00000	 20.0	 4	    1.10000	    0.90000;
	131	 2	 0.0	 0.0	 0.0	 0.0	 4	    1.00000	    0.00000	 20.0	 4	    1.10000	    0.90000;
	132	 2	 0.0	 0.0	 0.0	 0.0	 4	    1.00000	    0.00000	 20.0	 4	    1.10000	    0.90000;
	133	 2	 0.0	 0.0	 0.0	 0.0	 4	    1.00000	    0.00000	 20.0	 4	    1.10000	    0.90000;
	134	 2	 0.0	 0.0	 0.0	 0.0	 4	    1.00000	    0.00000	 20.0	 4	    1.10000	    0.90000;
	135	 1	 229.05	 127.87	 0.0	 0.0	 4	    1.00000	    0.00000	 500.0	 4	    1.10000	    0.90000;
	136	 2	 0.0	 0.0	 0.0	 0.0	 4	    1.00000	    0.00000	 20.0	 4	    1.10000	    0.90000;
	137	 1	 17.32	 -9.92	 0.0	 0.0	 4	    1.00000	    0.00000	 500.0	 4	    1.10000	    0.90000;
	138	 1	 1.38	 40.91	 0.0	 0.0	 4	    1.00000	    0.00000	 500.0	 4	    1.10000	    0.90000;
	139	 1	 36.54	 1.82	 0.0	 0.0	 4	    1.00000	    0.00000	 345.0	 4	    1.10000	    0.90000;
	140	 1	 287.7	 3.44	 0.0	 0.0	 4	    1.00000	    0.00000	 500.0	 4	    1.10000	    0.90000;
	141	 1	 90.7	 1.7	 0.0	 0.0	 4	    1.00000	    0.00000	 345.0	 4	    1.10000	    0.90000;
	142	 2	 0.0	 0.0	 0.0	 0.0	 4	    1.00000	    0.00000	 500.0	 4	    1.10000	    0.90000;
	143	 2	 303.04	 131.03	 0.0	 0.0	 4	    1.00000	    0.00000	 500.0	 4	    1.10000	    0.90000;
	144	 1	 300.2	 -33.04	 0.0	 0.0	 4	    1.00000	    0.00000	 500.0	 4	    1.10000	    0.90000;
	145	 1	 207.95	 -48.04	 0.0	 0.0	 4	    1.00000	    0.00000	 500.0	 4	    1.10000	    0.90000;
	146	 2	 34.44	 -34.16	 0.0	 16.08	 4	    1.00000	    0.00000	 500.0	 4	    1.10000	    0.90000;
	147	 1	 25.54	 -11.15	 0.0	 0.0	 4	    1.00000	    0.00000	 345.0	 4	    1.10000	    0.90000;
	148	 1	 0.0	 0.0	 0.0	 0.0	 4	    1.00000	    0.00000	 20.0	 4	    1.10000	    0.90000;
	149	 1	 30.93	 0.69	 0.0	 5.66	 4	    1.00000	    0.00000	 345.0	 4	    1.10000	    0.90000;
	150	 2	 14.32	 -83.22	 0.0	 -23.72	 4	    1.00000	    0.00000	 500.0	 4	    1.10000	    0.90000;
	151	 2	 189.4	 22.18	 0.0	 0.0	 4	    1.00000	    0.00000	 345.0	 4	    1.10000	    0.90000;
	152	 1	 1.72	 56.78	 0.0	 0.0	 4	    1.00000	    0.00000	 500.0	 4	    1.10000	    0.90000;
	153	 2	 0.0	 0.0	 0.0	 0.0	 4	    1.00000	    0.00000	 20.0	 4	    1.10000	    0.90000;
	154	 1	 104.6	 39.28	 0.0	 0.0	 4	    1.00000	    0.00000	 345.0	 4	    1.10000	    0.90000;
	155	 1	 493.4	 -4.59	 0.0	 0.0	 4	    1.00000	    0.00000	 500.0	 4	    1.10000	    0.90000;
	156	 1	 69.78	 13.96	 0.0	 0.0	 4	    1.00000	    0.00000	 345.0	 4	    1.10000	    0.90000;
	157	 2	 0.0	 0.0	 0.0	 0.0	 4	    1.00000	    0.00000	 20.0	 4	    1.10000	    0.90000;
	158	 1	 633.63	 11.09	 0.0	 0.0	 4	    1.00000	    0.00000	 345.0	 4	    1.10000	    0.90000;
	159	 1	 0.0	 0.0	 0.0	 0.0	 4	    1.00000	    0.00000	 20.0	 4	    1.10000	    0.90000;
	160	 1	 694.34	 45.83	 0.0	 0.0	 4	    1.00000	    0.00000	 345.0	 4	    1.10000	    0.90000;
	161	 1	 0.0	 0.0	 0.0	 0.0	 4	    1.00000	    0.00000	 20.0	 4	    1.10000	    0.90000;
	162	 1	 0.0	 0.0	 0.0	 0.0	 4	    1.00000	    0.00000	 20.0	 4	    1.10000	    0.90000;
	163	 2	 0.0	 0.0	 0.0	 0.0	 4	    1.00000	    0.00000	 20.0	 4	    1.10000	    0.90000;
	164	 1	 0.0	 0.0	 0.0	 0.0	 4	    1.00000	    0.00000	 20.0	 4	    1.10000	    0.90000;
	165	 2	 0.0	 0.0	 0.0	 0.0	 4	    1.00000	    0.00000	 20.0	 4	    1.10000	    0.90000;
	166	 2	 0.0	 0.0	 0.0	 0.0	 4	    1.00000	    0.00000	 20.0	 4	    1.10000	    0.90000;
	167	 2	 0.0	 0.0	 0.0	 0.0	 4	    1.00000	    0.00000	 20.0	 4	    1.10000	    0.90000;
	168	 2	 0.0	 0.0	 0.0	 0.0	 4	    1.00000	    0.00000	 20.0	 4	    1.10000	    0.90000;
	169	 2	 0.0	 0.0	 0.0	 0.0	 4	    1.00000	    0.00000	 20.0	 4	    1.10000	    0.90000;
	170	 1	 -24.49	 95.16	 0.0	 11.38	 4	    1.00000	    0.00000	 500.0	 4	    1.10000	    0.90000;
	171	 1	 179.74	 -1.65	 0.0	 0.0	 4	    1.00000	    0.00000	 345.0	 4	    1.10000	    0.90000;
	172	 1	 80.59	 -11.62	 0.0	 0.0	 4	    1.00000	    0.00000	 345.0	 4	    1.10000	    0.90000;
	173	 1	 366.6	 -3.38	 0.0	 0.0	 4	    1.00000	    0.00000	 500.0	 4	    1.10000	    0.90000;
	174	 1	 72.28	 5.18	 0.0	 0.0	 4	    1.00000	    0.00000	 345.0	 4	    1.10000	    0.90000;
	175	 1	 31.59	 -20.02	 0.0	 0.0	 4	    1.00000	    0.00000	 500.0	 4	    1.10000	    0.90000;
	176	 2	 0.0	 0.0	 0.0	 0.0	 4	    1.00000	    0.00000	 20.0	 4	    1.10000	    0.90000;
	177	 1	 449.54	 10.66	 0.0	 0.0	 4	    1.00000	    0.00000	 345.0	 4	    1.10000	    0.90000;
	178	 1	 19.12	 -14.57	 0.0	 0.0	 4	    1.00000	    0.00000	 500.0	 4	    1.10000	    0.90000;
	179	 2	 0.0	 0.0	 0.0	 0.0	 4	    1.00000	    0.00000	 20.0	 4	    1.10000	    0.90000;
	180	 2	 0.0	 0.0	 0.0	 0.0	 4	    1.00000	    0.00000	 20.0	 4	    1.10000	    0.90000;
	181	 1	 24.33	 -74.57	 0.0	 0.0	 4	    1.00000	    0.00000	 500.0	 4	    1.10000	    0.90000;
	182	 2	 0.0	 0.0	 0.0	 0.0	 4	    1.00000	    0.00000	 20.0	 4	    1.10000	    0.90000;
	183	 1	 0.0	 0.0	 0.0	 0.0	 4	    1.00000	    0.00000	 20.0	 4	    1.10000	    0.90000;
	184	 1	 0.0	 0.0	 0.0	 0.0	 4	    1.00000	    0.00000	 20.0	 4	    1.10000	    0.90000;
	185	 2	 0.0	 0.0	 0.0	 0.0	 4	    1.00000	    0.00000	 20.0	 4	    1.10000	    0.90000;
	186	 1	 67.47	 4.64	 0.0	 0.0	 4	    1.00000	    0.00000	 345.0	 4	    1.10000	    0.90000;
	187	 2	 0.0	 0.0	 0.0	 0.0	 4	    1.00000	    0.00000	 20.0	 4	    1.10000	    0.90000;
	188	 2	 0.0	 0.0	 0.0	 0.0	 4	    1.00000	    0.00000	 20.0	 4	    1.10000	    0.90000;
	189	 2	 0.0	 0.0	 0.0	 0.0	 4	    1.00000	    0.00000	 20.0	 4	    1.10000	    0.90000;
	190	 1	 0.0	 0.0	 0.0	 0.0	 4	    1.00000	    0.00000	 20.0	 4	    1.10000	    0.90000;
	191	 1	 0.0	 0.0	 0.0	 0.0	 4	    1.00000	    0.00000	 20.0	 4	    1.10000	    0.90000;
	192	 1	 0.0	 0.0	 0.0	 0.0	 4	    1.00000	    0.00000	 20.0	 4	    1.10000	    0.90000;
	193	 1	 142.0	 10.03	 0.0	 0.0	 4	    1.00000	    0.00000	 345.0	 4	    1.10000	    0.90000;
	194	 2	 0.0	 0.0	 0.0	 0.0	 4	    1.00000	    0.00000	 500.0	 4	    1.10000	    0.90000;
	195	 1	 186.8	 12.96	 0.0	 0.0	 4	    1.00000	    0.00000	 345.0	 4	    1.10000	    0.90000;
	196	 1	 0.0	 0.0	 0.0	 0.0	 4	    1.00000	    0.00000	 20.0	 4	    1.10000	    0.90000;
	197	 1	 0.0	 0.0	 0.0	 0.0	 4	    1.00000	    0.00000	 20.0	 4	    1.10000	    0.90000;
	198	 1	 0.0	 0.0	 0.0	 0.0	 4	    1.00000	    0.00000	 20.0	 4	    1.10000	    0.90000;
	199	 1	 0.0	 0.0	 0.0	 0.0	 4	    1.00000	    0.00000	 20.0	 4	    1.10000	    0.90000;
	200	 1	 0.0	 0.0	 0.0	 0.0	 4	    1.00000	    0.00000	 20.0	 4	    1.10000	    0.90000;
...
];

%% generator data
%	bus	Pg	Qg	Qmax	Qmin	Vg	mBase	status	Pmax	Pmin	Pc1	Pc2	Qc1min	Qc1max	Qc2min	Qc2max	ramp_agc	ramp_10	ramp_30	ramp_q	apf
mpc.gen = [
	2	 60.3	 0.0	 35.83	 -35.83	 1.0	 100.0	 1	 100.0	 20.6	 0.0	 0.0	 0.0	 0.0	 0.0	 0.0	 0.0	 0.0	 0.0	 0.0	 100.0; % NG
	6	 61.435	 0.0	 35.79	 -35.79	 1.0	 100.0	 1	 100.0	 22.87	 0.0	 0.0	 0.0	 0.0	 0.0	 0.0	 0.0	 0.0	 0.0	 0.0	 100.0; % NG
	10	 95.83	 0.0	 500.0	 -500.0	 1.0	 100.0	 1	 115.09	 76.57	 0.0	 0.0	 0.0	 0.0	 0.0	 0.0	 0.0	 0.0	 0.0	 0.0	 115.087; % COW
	12	 0.0	 0.0	 33.33	 -33.33	 1.0	 100.0	 0	 32.21	 17.2	 0.0	 0.0	 0.0	 0.0	 0.0	 0.0	 0.0	 0.0	 0.0	 0.0	 32.205; % NG
	15	 60.3	 0.0	 35.83	 -35.83	 1.0	 100.0	 1	 100.0	 20.6	 0.0	 0.0	 0.0	 0.0	 0.0	 0.0	 0.0	 0.0	 0.0	 0.0	 100.0; % COW
	16	 61.435	 0.0	 35.79	 -35.79	 1.0	 100.0	 1	 100.0	 22.87	 0.0	 0.0	 0.0	 0.0	 0.0	 0.0	 0.0	 0.0	 0.0	 0.0	 100.0; % NG
	17	 0.0	 0.0	 33.33	 -33.33	 1.0	 100.0	 0	 46.49	 31.49	 0.0	 0.0	 0.0	 0.0	 0.0	 0.0	 0.0	 0.0	 0.0	 0.0	 46.487; % NG
	24	 61.435	 0.0	 35.79	 -35.79	 1.0	 100.0	 1	 100.0	 22.87	 0.0	 0.0	 0.0	 0.0	 0.0	 0.0	 0.0	 0.0	 0.0	 0.0	 100.0; % NG
	26	 60.3	 0.0	 35.83	 -35.83	 1.0	 100.0	 1	 100.0	 20.6	 0.0	 0.0	 0.0	 0.0	 0.0	 0.0	 0.0	 0.0	 0.0	 0.0	 100.0; % COW
	27	 61.435	 0.0	 35.79	 -35.79	 1.0	 100.0	 1	 100.0	 22.87	 0.0	 0.0	 0.0	 0.0	 0.0	 0.0	 0.0	 0.0	 0.0	 0.0	 100.0; % NG
	30	 0.0	 0.0	 33.33	 -33.33	 1.0	 100.0	 0	 31.22	 16.21	 0.0	 0.0	 0.0	 0.0	 0.0	 0.0	 0.0	 0.0	 0.0	 0.0	 31.215; % PEL
	34	 61.435	 0.0	 35.79	 -35.79	 1.0	 100.0	 1	 100.0	 22.87	 0.0	 0.0	 0.0	 0.0	 0.0	 0.0	 0.0	 0.0	 0.0	 0.0	 100.0; % COW
	44	 61.435	 0.0	 35.79	 -35.79	 1.0	 100.0	 1	 100.0	 22.87	 0.0	 0.0	 0.0	 0.0	 0.0	 0.0	 0.0	 0.0	 0.0	 0.0	 100.0; % COW
	45	 60.3	 0.0	 35.83	 -35.83	 1.0	 100.0	 1	 100.0	 20.6	 0.0	 0.0	 0.0	 0.0	 0.0	 0.0	 0.0	 0.0	 0.0	 0.0	 100.0; % NG
	64	 873.77	 0.0	 500.0	 -500.0	 1.0	 100.0	 1	 1195.77	 551.77	 0.0	 0.0	 0.0	 0.0	 0.0	 0.0	 0.0	 0.0	 0.0	 0.0	 1195.7679; % NUC
	65	 55.595	 0.0	 60.05	 -60.05	 1.0	 100.0	 1	 100.0	 11.19	 0.0	 0.0	 0.0	 0.0	 0.0	 0.0	 0.0	 0.0	 0.0	 0.0	 100.0; % COW
	82	 55.595	 0.0	 60.05	 -60.05	 1.0	 100.0	 1	 100.0	 11.19	 0.0	 0.0	 0.0	 0.0	 0.0	 0.0	 0.0	 0.0	 0.0	 0.0	 100.0; % NG
	89	 137.0	 14.97	 149.7	 -119.76	 1.0	 100.0	 1	 274.0	 0.0	 0.0	 0.0	 0.0	 0.0	 0.0	 0.0	 0.0	 0.0	 0.0	 0.0	 274.0; % NG
	96	 55.595	 0.0	 60.05	 -60.05	 1.0	 100.0	 1	 100.0	 11.19	 0.0	 0.0	 0.0	 0.0	 0.0	 0.0	 0.0	 0.0	 0.0	 0.0	 100.0; % NG
	105	 0.0	 0.0	 33.33	 -33.33	 1.0	 100.0	 0	 297.0	 1.83	 0.0	 0.0	 0.0	 0.0	 0.0	 0.0	 0.0	 0.0	 0.0	 0.0	 297.0; % NG
	108	 144.0	 0.0	 61.1	 -61.1	 1.0	 100.0	 1	 288.0	 0.0	 0.0	 0.0	 0.0	 0.0	 0.0	 0.0	 0.0	 0.0	 0.0	 0.0	 288.0; % NG
	117	 141.0	 0.0	 61.1	 -61.1	 1.0	 100.0	 1	 282.0	 0.0	 0.0	 0.0	 0.0	 0.0	 0.0	 0.0	 0.0	 0.0	 0.0	 0.0	 282.0; % COW
	126	 66.345	 0.0	 500.0	 -500.0	 1.0	 100.0	 1	 92.8	 39.89	 0.0	 0.0	 0.0	 0.0	 0.0	 0.0	 0.0	 0.0	 0.0	 0.0	 92.804; % NG
	128	 0.0	 0.0	 33.33	 -33.33	 1.0	 100.0	 0	 315.13	 300.13	 0.0	 0.0	 0.0	 0.0	 0.0	 0.0	 0.0	 0.0	 0.0	 0.0	 315.13; % NG
	129	 128.04	 0.0	 28.32	 -28.32	 1.0	 200.0	 1	 200.0	 56.08	 0.0	 0.0	 0.0	 0.0	 0.0	 0.0	 0.0	 0.0	 0.0	 0.0	 200.0; % NG
	130	 128.04	 0.0	 28.32	 -28.32	 1.0	 200.0	 1	 200.0	 56.08	 0.0	 0.0	 0.0	 0.0	 0.0	 0.0	 0.0	 0.0	 0.0	 0.0	 200.0; % NG
	131	 128.04	 0.0	 28.32	 -28.32	 1.0	 200.0	 1	 200.0	 56.08	 0.0	 0.0	 0.0	 0.0	 0.0	 0.0	 0.0	 0.0	 0.0	 0.0	 200.0; % NG
	132	 128.04	 0.0	 28.32	 -28.32	 1.0	 200.0	 1	 200.0	 56.08	 0.0	 0.0	 0.0	 0.0	 0.0	 0.0	 0.0	 0.0	 0.0	 0.0	 200.0; % NG
	133	 128.04	 0.0	 28.32	 -28.32	 1.0	 200.0	 1	 200.0	 56.08	 0.0	 0.0	 0.0	 0.0	 0.0	 0.0	 0.0	 0.0	 0.0	 0.0	 200.0; % NG
	134	 128.04	 0.0	 28.32	 -28.32	 1.0	 200.0	 1	 200.0	 56.08	 0.0	 0.0	 0.0	 0.0	 0.0	 0.0	 0.0	 0.0	 0.0	 0.0	 200.0; % NG
	136	 60.435	 0.0	 16.78	 -16.78	 1.0	 100.0	 1	 100.0	 20.87	 0.0	 0.0	 0.0	 0.0	 0.0	 0.0	 0.0	 0.0	 0.0	 0.0	 100.0; % NG
	142	 129.5	 0.0	 86.64	 -86.64	 1.0	 100.0	 1	 259.0	 0.0	 0.0	 0.0	 0.0	 0.0	 0.0	 0.0	 0.0	 0.0	 0.0	 0.0	 259.0; % COW
	143	 710.92	 0.0	 500.0	 -500.0	 1.0	 100.0	 1	 835.31	 586.53	 0.0	 0.0	 0.0	 0.0	 0.0	 0.0	 0.0	 0.0	 0.0	 0.0	 835.31; % COW
	146	 0.0	 0.0	 33.33	 -33.33	 1.0	 100.0	 0	 253.15	 238.15	 0.0	 0.0	 0.0	 0.0	 0.0	 0.0	 0.0	 0.0	 0.0	 0.0	 253.152; % NG
	150	 0.0	 0.0	 33.33	 -33.33	 1.0	 100.0	 0	 158.58	 143.58	 0.0	 0.0	 0.0	 0.0	 0.0	 0.0	 0.0	 0.0	 0.0	 0.0	 158.58; % NG
	151	 24.97	 0.0	 500.0	 -500.0	 1.0	 100.0	 1	 49.37	 0.57	 0.0	 0.0	 0.0	 0.0	 0.0	 0.0	 0.0	 0.0	 0.0	 0.0	 49.372; % NG
	153	 350.0	 0.0	 86.91	 -86.91	 1.0	 600.0	 1	 600.0	 100.0	 0.0	 0.0	 0.0	 0.0	 0.0	 0.0	 0.0	 0.0	 0.0	 0.0	 600.0; % COW
	157	 350.0	 0.0	 86.91	 -86.91	 1.0	 600.0	 1	 600.0	 100.0	 0.0	 0.0	 0.0	 0.0	 0.0	 0.0	 0.0	 0.0	 0.0	 0.0	 600.0; % COW
	163	 62.95	 0.0	 24.04	 -24.04	 1.0	 100.0	 1	 100.0	 25.9	 0.0	 0.0	 0.0	 0.0	 0.0	 0.0	 0.0	 0.0	 0.0	 0.0	 100.0; % NG
	165	 57.115	 0.0	 22.31	 -22.31	 1.0	 100.0	 1	 100.0	 14.23	 0.0	 0.0	 0.0	 0.0	 0.0	 0.0	 0.0	 0.0	 0.0	 0.0	 100.0; % NG
	166	 500.0	 0.0	 122.95	 -122.95	 1.0	 800.0	 1	 800.0	 200.0	 0.0	 0.0	 0.0	 0.0	 0.0	 0.0	 0.0	 0.0	 0.0	 0.0	 800.0; % COW
	167	 500.0	 0.0	 122.95	 -122.95	 1.0	 800.0	 1	 800.0	 200.0	 0.0	 0.0	 0.0	 0.0	 0.0	 0.0	 0.0	 0.0	 0.0	 0.0	 800.0; % NG
	168	 500.0	 0.0	 122.95	 -122.95	 1.0	 800.0	 1	 800.0	 200.0	 0.0	 0.0	 0.0	 0.0	 0.0	 0.0	 0.0	 0.0	 0.0	 0.0	 800.0; % COW
	169	 500.0	 0.0	 122.95	 -122.95	 1.0	 800.0	 1	 800.0	 200.0	 0.0	 0.0	 0.0	 0.0	 0.0	 0.0	 0.0	 0.0	 0.0	 0.0	 800.0; % NG
	176	 450.0	 0.0	 121.64	 -121.64	 1.0	 700.0	 1	 700.0	 200.0	 0.0	 0.0	 0.0	 0.0	 0.0	 0.0	 0.0	 0.0	 0.0	 0.0	 700.0; % COW
	179	 128.04	 0.0	 28.32	 -28.32	 1.0	 200.0	 1	 200.0	 56.08	 0.0	 0.0	 0.0	 0.0	 0.0	 0.0	 0.0	 0.0	 0.0	 0.0	 200.0; % NG
	180	 128.04	 0.0	 28.32	 -28.32	 1.0	 200.0	 1	 200.0	 56.08	 0.0	 0.0	 0.0	 0.0	 0.0	 0.0	 0.0	 0.0	 0.0	 0.0	 200.0; % COW
	182	 350.0	 0.0	 86.91	 -86.91	 1.0	 600.0	 1	 600.0	 100.0	 0.0	 0.0	 0.0	 0.0	 0.0	 0.0	 0.0	 0.0	 0.0	 0.0	 600.0; % COW
	185	 53.59	 0.0	 15.59	 -15.59	 1.0	 100.0	 1	 100.0	 7.18	 0.0	 0.0	 0.0	 0.0	 0.0	 0.0	 0.0	 0.0	 0.0	 0.0	 100.0; % NG
	187	 450.0	 0.0	 121.64	 -121.64	 1.0	 700.0	 1	 700.0	 200.0	 0.0	 0.0	 0.0	 0.0	 0.0	 0.0	 0.0	 0.0	 0.0	 0.0	 700.0; % COW
	188	 450.0	 0.0	 121.64	 -121.64	 1.0	 700.0	 1	 700.0	 200.0	 0.0	 0.0	 0.0	 0.0	 0.0	 0.0	 0.0	 0.0	 0.0	 0.0	 700.0; % COW
	189	 450.0	 0.0	 121.64	 -121.64	 1.0	 700.0	 1	 700.0	 200.0	 0.0	 0.0	 0.0	 0.0	 0.0	 0.0	 0.0	 0.0	 0.0	 0.0	 700.0; % COW
	194	 144.0	 0.0	 75.98	 -75.98	 1.0	 100.0	 1	 288.0	 0.0	 0.0	 0.0	 0.0	 0.0	 0.0	 0.0	 0.0	 0.0	 0.0	 0.0	 288.0; % NG
	202	 0.0	 0.0	 33.33	 -33.33	 1.0	 100.0	 0	 74.68	 59.68	 0.0	 0.0	 0.0	 0.0	 0.0	 0.0	 0.0	 0.0	 0.0	 0.0	 74.677; % PEL
	204	 350.0	 0.0	 86.91	 -86.91	 1.0	 600.0	 1	 600.0	 100.0	 0.0	 0.0	 0.0	 0.0	 0.0	 0.0	 0.0	 0.0	 0.0	 0.0	 600.0; % COW
	210	 56.3	 0.0	 18.22	 -18.22	 1.0	 100.0	 1	 100.0	 12.6	 0.0	 0.0	 0.0	 0.0	 0.0	 0.0	 0.0	 0.0	 0.0	 0.0	 100.0; % NG
	213	 56.8	 0.0	 19.22	 -19.22	 1.0	 100.0	 1	 100.0	 13.6	 0.0	 0.0	 0.0	 0.0	 0.0	 0.0	 0.0	 0.0	 0.0	 0.0	 100.0; % NG
	216	 309.775	 0.0	 500.0	 -500.0	 1.0	 100.0	 1	 371.73	 247.82	 0.0	 0.0	 0.0	 0.0	 0.0	 0.0	 0.0	 0.0	 0.0	 0.0	 371.734; % NG
	224	 56.795	 0.0	 22.36	 -22.36	 1.0	 100.0	 1	 100.0	 13.59	 0.0	 0.0	 0.0	 0.0	 0.0	 0.0	 0.0	 0.0	 0.0	 0.0	 100.0; % COW
	227	 132.0	 0.0	 440.92	 -440.92	 1.0	 100.0	 1	 264.0	 0.0	 0.0	 0.0	 0.0	 0.0	 0.0	 0.0	 0.0	 0.0	 0.0	 0.0	 264.0; % NG
	227	 322.3	 0.0	 500.0	 -500.0	 1.0	 100.0	 1	 386.76	 257.84	 0.0	 0.0	 0.0	 0.0	 0.0	 0.0	 0.0	 0.0	 0.0	 0.0	 386.761; % NG
	229	 124.955	 0.0	 25.66	 -25.66	 1.0	 200.0	 1	 200.0	 49.91	 0.0	 0.0	 0.0	 0.0	 0.0	 0.0	 0.0	 0.0	 0.0	 0.0	 200.0; % NG
	230	 59.125	 0.0	 24.93	 -24.93	 1.0	 100.0	 1	 100.0	 18.25	 0.0	 0.0	 0.0	 0.0	 0.0	 0.0	 0.0	 0.0	 0.0	 0.0	 100.0; % NG
	232	 57.455	 0.0	 22.3	 -22.3	 1.0	 100.0	 1	 100.0	 14.91	 0.0	 0.0	 0.0	 0.0	 0.0	 0.0	 0.0	 0.0	 0.0	 0.0	 100.0; % NG
	237	 199.31	 0.0	 16.42	 -16.42	 1.0	 300.0	 1	 300.0	 98.62	 0.0	 0.0	 0.0	 0.0	 0.0	 0.0	 0.0	 0.0	 0.0	 0.0	 300.0; % NG
	238	 57.625	 0.0	 22.17	 -22.17	 1.0	 100.0	 1	 100.0	 15.25	 0.0	 0.0	 0.0	 0.0	 0.0	 0.0	 0.0	 0.0	 0.0	 0.0	 100.0; % NG
	239	 500.0	 96.235	 195.0	 -2.53	 1.0	 800.0	 1	 800.0	 200.0	 0.0	 0.0	 0.0	 0.0	 0.0	 0.0	 0.0	 0.0	 0.0	 0.0	 800.0; % COW
	242	 45.44	 0.0	 500.0	 -500.0	 1.0	 100.0	 1	 59.84	 31.04	 0.0	 0.0	 0.0	 0.0	 0.0	 0.0	 0.0	 0.0	 0.0	 0.0	 59.838; % PEL
	244	 0.0	 0.0	 33.33	 -33.33	 1.0	 100.0	 0	 400.96	 385.96	 0.0	 0.0	 0.0	 0.0	 0.0	 0.0	 0.0	 0.0	 0.0	 0.0	 400.964; % COW
	247	 13.49	 0.0	 500.0	 -500.0	 1.0	 100.0	 1	 26.39	 0.59	 0.0	 0.0	 0.0	 0.0	 0.0	 0.0	 0.0	 0.0	 0.0	 0.0	 26.389; % NG
	248	 337.55	 0.0	 500.0	 -500.0	 1.0	 100.0	 1	 405.06	 270.04	 0.0	 0.0	 0.0	 0.0	 0.0	 0.0	 0.0	 0.0	 0.0	 0.0	 405.056; % NG
	255	 59.125	 0.0	 24.93	 -24.93	 1.0	 100.0	 1	 100.0	 18.25	 0.0	 0.0	 0.0	 0.0	 0.0	 0.0	 0.0	 0.0	 0.0	 0.0	 100.0; % COW
	256	 124.955	 0.0	 25.66	 -25.66	 1.0	 200.0	 1	 200.0	 49.91	 0.0	 0.0	 0.0	 0.0	 0.0	 0.0	 0.0	 0.0	 0.0	 0.0	 200.0; % NG
	258	 57.455	 0.0	 22.3	 -22.3	 1.0	 100.0	 1	 100.0	 14.91	 0.0	 0.0	 0.0	 0.0	 0.0	 0.0	 0.0	 0.0	 0.0	 0.0	 100.0; % NG
	261	 124.955	 0.0	 25.66	 -25.66	 1.0	 200.0	 1	 200.0	 49.91	 0.0	 0.0	 0.0	 0.0	 0.0	 0.0	 0.0	 0.0	 0.0	 0.0	 200.0; % NG
	269	 56.795	 0.0	 22.36	 -22.36	 1.0	 100.0	 1	 100.0	 13.59	 0.0	 0.0	 0.0	 0.0	 0.0	 0.0	 0.0	 0.0	 0.0	 0.0	 100.0; % NG
	270	 500.0	 95.235	 193.0	 -2.53	 1.0	 800.0	 1	 800.0	 200.0	 0.0	 0.0	 0.0	 0.0	 0.0	 0.0	 0.0	 0.0	 0.0	 0.0	 800.0; % COW
	273	 57.625	 0.0	 22.17	 -22.17	 1.0	 100.0	 1	 100.0	 15.25	 0.0	 0.0	 0.0	 0.0	 0.0	 0.0	 0.0	 0.0	 0.0	 0.0	 100.0; % COW
	279	 60.45	 0.0	 34.68	 -34.68	 1.0	 100.0	 1	 100.0	 20.9	 0.0	 0.0	 0.0	 0.0	 0.0	 0.0	 0.0	 0.0	 0.0	 0.0	 100.0; % NG
	280	 58.405	 0.0	 36.4	 -36.4	 1.0	 100.0	 1	 100.0	 16.81	 0.0	 0.0	 0.0	 0.0	 0.0	 0.0	 0.0	 0.0	 0.0	 0.0	 100.0; % COW
	284	 291.705	 0.0	 500.0	 -500.0	 1.0	 100.0	 1	 391.25	 192.16	 0.0	 0.0	 0.0	 0.0	 0.0	 0.0	 0.0	 0.0	 0.0	 0.0	 391.254; % NG
	289	 57.425	 0.0	 21.85	 -21.85	 1.0	 100.0	 1	 100.0	 14.85	 0.0	 0.0	 0.0	 0.0	 0.0	 0.0	 0.0	 0.0	 0.0	 0.0	 100.0; % NG
	292	 57.425	 0.0	 48.87	 -48.87	 1.0	 100.0	 1	 100.0	 14.85	 0.0	 0.0	 0.0	 0.0	 0.0	 0.0	 0.0	 0.0	 0.0	 0.0	 100.0; % NG
	293	 57.425	 0.0	 48.87	 -48.87	 1.0	 100.0	 1	 100.0	 14.85	 0.0	 0.0	 0.0	 0.0	 0.0	 0.0	 0.0	 0.0	 0.0	 0.0	 100.0; % NG
	295	 60.45	 0.0	 34.68	 -34.68	 1.0	 100.0	 1	 100.0	 20.9	 0.0	 0.0	 0.0	 0.0	 0.0	 0.0	 0.0	 0.0	 0.0	 0.0	 100.0; % NG
	300	 58.935	 0.0	 29.48	 -29.48	 1.0	 100.0	 1	 100.0	 17.87	 0.0	 0.0	 0.0	 0.0	 0.0	 0.0	 0.0	 0.0	 0.0	 0.0	 100.0; % COW
	301	 58.935	 0.0	 29.48	 -29.48	 1.0	 100.0	 1	 100.0	 17.87	 0.0	 0.0	 0.0	 0.0	 0.0	 0.0	 0.0	 0.0	 0.0	 0.0	 100.0; % PEL
	302	 139.0	 0.0	 204.62	 -204.62	 1.0	 100.0	 1	 278.0	 0.0	 0.0	 0.0	 0.0	 0.0	 0.0	 0.0	 0.0	 0.0	 0.0	 0.0	 278.0; % NG
	302	 1355.925	 0.0	 500.0	 -500.0	 1.0	 100.0	 1	 1627.11	 1084.74	 0.0	 0.0	 0.0	 0.0	 0.0	 0.0	 0.0	 0.0	 0.0	 0.0	 1627.1121; % COW
	303	 57.485	 0.0	 56.99	 -56.99	 1.0	 100.0	 1	 100.0	 14.97	 0.0	 0.0	 0.0	 0.0	 0.0	 0.0	 0.0	 0.0	 0.0	 0.0	 100.0; % COW
	306	 56.175	 0.0	 43.22	 -43.22	 1.0	 100.0	 1	 100.0	 12.35	 0.0	 0.0	 0.0	 0.0	 0.0	 0.0	 0.0	 0.0	 0.0	 0.0	 100.0; % NG
	307	 56.175	 0.0	 43.22	 -43.22	 1.0	 100.0	 1	 100.0	 12.35	 0.0	 0.0	 0.0	 0.0	 0.0	 0.0	 0.0	 0.0	 0.0	 0.0	 100.0; % NG
	308	 56.79	 0.0	 20.9	 -20.9	 1.0	 100.0	 1	 100.0	 13.58	 0.0	 0.0	 0.0	 0.0	 0.0	 0.0	 0.0	 0.0	 0.0	 0.0	 100.0; % NG
	313	 56.175	 0.0	 43.22	 -43.22	 1.0	 100.0	 1	 100.0	 12.35	 0.0	 0.0	 0.0	 0.0	 0.0	 0.0	 0.0	 0.0	 0.0	 0.0	 100.0; % COW
	314	 0.0	 0.0	 33.33	 -33.33	 1.0	 100.0	 0	 82.53	 67.53	 0.0	 0.0	 0.0	 0.0	 0.0	 0.0	 0.0	 0.0	 0.0	 0.0	 82.526; % PEL
	317	 58.935	 0.0	 29.48	 -29.48	 1.0	 100.0	 1	 100.0	 17.87	 0.0	 0.0	 0.0	 0.0	 0.0	 0.0	 0.0	 0.0	 0.0	 0.0	 100.0; % NG
	318	 58.935	 0.0	 29.48	 -29.48	 1.0	 100.0	 1	 100.0	 17.87	 0.0	 0.0	 0.0	 0.0	 0.0	 0.0	 0.0	 0.0	 0.0	 0.0	 100.0; % PEL
	322	 57.485	 0.0	 56.99	 -56.99	 1.0	 100.0	 1	 100.0	 14.97	 0.0	 0.0	 0.0	 0.0	 0.0	 0.0	 0.0	 0.0	 0.0	 0.0	 100.0; % NG
	323	 57.485	 0.0	 56.99	 -56.99	 1.0	 100.0	 1	 100.0	 14.97	 0.0	 0.0	 0.0	 0.0	 0.0	 0.0	 0.0	 0.0	 0.0	 0.0	 100.0; % NG
	324	 57.425	 0.0	 21.85	 -21.85	 1.0	 100.0	 1	 100.0	 14.85	 0.0	 0.0	 0.0	 0.0	 0.0	 0.0	 0.0	 0.0	 0.0	 0.0	 100.0; % NG
	325	 57.425	 0.0	 21.85	 -21.85	 1.0	 100.0	 1	 100.0	 14.85	 0.0	 0.0	 0.0	 0.0	 0.0	 0.0	 0.0	 0.0	 0.0	 0.0	 100.0; % NG
	326	 56.79	 0.0	 20.9	 -20.9	 1.0	 100.0	 1	 100.0	 13.58	 0.0	 0.0	 0.0	 0.0	 0.0	 0.0	 0.0	 0.0	 0.0	 0.0	 100.0; % NG
	327	 56.79	 0.0	 20.9	 -20.9	 1.0	 100.0	 1	 100.0	 13.58	 0.0	 0.0	 0.0	 0.0	 0.0	 0.0	 0.0	 0.0	 0.0	 0.0	 100.0; % NG
	328	 57.425	 0.0	 21.85	 -21.85	 1.0	 100.0	 1	 100.0	 14.85	 0.0	 0.0	 0.0	 0.0	 0.0	 0.0	 0.0	 0.0	 0.0	 0.0	 100.0; % NG
	334	 18.9	 0.0	 27.22	 -27.22	 1.0	 100.0	 1	 37.8	 0.0	 0.0	 0.0	 0.0	 0.0	 0.0	 0.0	 0.0	 0.0	 0.0	 0.0	 37.8; % NG
	335	 43.845	 0.0	 500.0	 -500.0	 1.0	 100.0	 1	 54.65	 33.04	 0.0	 0.0	 0.0	 0.0	 0.0	 0.0	 0.0	 0.0	 0.0	 0.0	 54.645; % NG
	336	 43.845	 0.0	 500.0	 -500.0	 1.0	 100.0	 1	 54.65	 33.04	 0.0	 0.0	 0.0	 0.0	 0.0	 0.0	 0.0	 0.0	 0.0	 0.0	 54.645; % NG
	339	 0.0	 0.0	 33.33	 -33.33	 1.0	 100.0	 0	 32.91	 17.91	 0.0	 0.0	 0.0	 0.0	 0.0	 0.0	 0.0	 0.0	 0.0	 0.0	 32.912; % PEL
	343	 17.905	 0.0	 25.78	 -25.78	 1.0	 100.0	 1	 35.81	 0.0	 0.0	 0.0	 0.0	 0.0	 0.0	 0.0	 0.0	 0.0	 0.0	 0.0	 35.812; % PEL
	345	 23.44	 0.0	 33.75	 -33.75	 1.0	 100.0	 1	 46.88	 0.0	 0.0	 0.0	 0.0	 0.0	 0.0	 0.0	 0.0	 0.0	 0.0	 0.0	 46.875; % NG
	347	 23.44	 0.0	 33.75	 -33.75	 1.0	 100.0	 1	 46.88	 0.0	 0.0	 0.0	 0.0	 0.0	 0.0	 0.0	 0.0	 0.0	 0.0	 0.0	 46.875; % NG
	349	 31.05	 0.0	 44.71	 -44.71	 1.0	 100.0	 1	 62.1	 0.0	 0.0	 0.0	 0.0	 0.0	 0.0	 0.0	 0.0	 0.0	 0.0	 0.0	 62.1; % NG
	351	 21.565	 0.0	 31.05	 -31.05	 1.0	 100.0	 1	 43.13	 0.0	 0.0	 0.0	 0.0	 0.0	 0.0	 0.0	 0.0	 0.0	 0.0	 0.0	 43.125; % NG
	352	 21.565	 0.0	 31.05	 -31.05	 1.0	 100.0	 1	 43.13	 0.0	 0.0	 0.0	 0.0	 0.0	 0.0	 0.0	 0.0	 0.0	 0.0	 0.0	 43.125; % NG
	354	 24.94	 0.0	 500.0	 -500.0	 1.0	 100.0	 1	 39.69	 10.19	 0.0	 0.0	 0.0	 0.0	 0.0	 0.0	 0.0	 0.0	 0.0	 0.0	 39.69; % COW
	356	 34.69	 0.0	 49.95	 -49.95	 1.0	 100.0	 1	 69.38	 0.0	 0.0	 0.0	 0.0	 0.0	 0.0	 0.0	 0.0	 0.0	 0.0	 0.0	 69.375; % NG
	360	 9.375	 0.0	 13.5	 -13.5	 1.0	 100.0	 1	 18.75	 0.0	 0.0	 0.0	 0.0	 0.0	 0.0	 0.0	 0.0	 0.0	 0.0	 0.0	 18.75; % NG
	361	 9.375	 0.0	 13.5	 -13.5	 1.0	 100.0	 1	 18.75	 0.0	 0.0	 0.0	 0.0	 0.0	 0.0	 0.0	 0.0	 0.0	 0.0	 0.0	 18.75; % NG
	362	 9.375	 0.0	 13.5	 -13.5	 1.0	 100.0	 1	 18.75	 0.0	 0.0	 0.0	 0.0	 0.0	 0.0	 0.0	 0.0	 0.0	 0.0	 0.0	 18.75; % NG
	365	 0.0	 0.0	 33.33	 -33.33	 1.0	 100.0	 0	 43.67	 28.67	 0.0	 0.0	 0.0	 0.0	 0.0	 0.0	 0.0	 0.0	 0.0	 0.0	 43.668; % NG
	367	 43.675	 0.0	 63.18	 -63.18	 1.0	 100.0	 1	 87.35	 0.0	 0.0	 0.0	 0.0	 0.0	 0.0	 0.0	 0.0	 0.0	 0.0	 0.0	 87.345; % NG
	369	 16.925	 0.0	 24.37	 -24.37	 1.0	 100.0	 1	 33.85	 0.0	 0.0	 0.0	 0.0	 0.0	 0.0	 0.0	 0.0	 0.0	 0.0	 0.0	 33.85; % PEL
	370	 0.0	 0.0	 33.33	 -33.33	 1.0	 100.0	 0	 40.14	 25.14	 0.0	 0.0	 0.0	 0.0	 0.0	 0.0	 0.0	 0.0	 0.0	 0.0	 40.138; % PEL
	374	 0.0	 0.0	 33.33	 -33.33	 1.0	 100.0	 0	 26.22	 11.22	 0.0	 0.0	 0.0	 0.0	 0.0	 0.0	 0.0	 0.0	 0.0	 0.0	 26.224; % PEL
	375	 0.0	 0.0	 33.33	 -33.33	 1.0	 100.0	 0	 269.0	 8.5	 0.0	 0.0	 0.0	 0.0	 0.0	 0.0	 0.0	 0.0	 0.0	 0.0	 269.0; % COW
	376	 0.0	 0.0	 33.33	 -33.33	 1.0	 100.0	 0	 34.71	 19.71	 0.0	 0.0	 0.0	 0.0	 0.0	 0.0	 0.0	 0.0	 0.0	 0.0	 34.714; % NG
	377	 0.0	 0.0	 33.33	 -33.33	 1.0	 100.0	 0	 87.2	 72.2	 0.0	 0.0	 0.0	 0.0	 0.0	 0.0	 0.0	 0.0	 0.0	 0.0	 87.2; % NG
	382	 21.885	 0.0	 500.0	 -500.0	 1.0	 100.0	 1	 42.77	 1.0	 0.0	 0.0	 0.0	 0.0	 0.0	 0.0	 0.0	 0.0	 0.0	 0.0	 42.766; % NG
	383	 34.08	 0.0	 500.0	 -500.0	 1.0	 100.0	 1	 49.67	 18.49	 0.0	 0.0	 0.0	 0.0	 0.0	 0.0	 0.0	 0.0	 0.0	 0.0	 49.675; % NG
	388	 51.175	 0.0	 500.0	 -500.0	 1.0	 100.0	 1	 95.57	 6.78	 0.0	 0.0	 0.0	 0.0	 0.0	 0.0	 0.0	 0.0	 0.0	 0.0	 95.575; % NG
	412	 23.44	 0.0	 33.75	 -33.75	 1.0	 100.0	 1	 46.88	 0.0	 0.0	 0.0	 0.0	 0.0	 0.0	 0.0	 0.0	 0.0	 0.0	 0.0	 46.875; % NG
	417	 32.01	 0.0	 500.0	 -500.0	 1.0	 100.0	 1	 41.74	 22.28	 0.0	 0.0	 0.0	 0.0	 0.0	 0.0	 0.0	 0.0	 0.0	 0.0	 41.739; % NG
	421	 14.065	 0.0	 20.25	 -20.25	 1.0	 100.0	 1	 28.13	 0.0	 0.0	 0.0	 0.0	 0.0	 0.0	 0.0	 0.0	 0.0	 0.0	 0.0	 28.125; % PEL
	422	 24.46	 0.0	 500.0	 -500.0	 1.0	 100.0	 1	 33.5	 15.42	 0.0	 0.0	 0.0	 0.0	 0.0	 0.0	 0.0	 0.0	 0.0	 0.0	 33.499; % NG
	438	 41.25	 0.0	 59.4	 -59.4	 1.0	 100.0	 1	 82.5	 0.0	 0.0	 0.0	 0.0	 0.0	 0.0	 0.0	 0.0	 0.0	 0.0	 0.0	 82.5; % NG
	444	 0.0	 0.0	 33.33	 -33.33	 1.0	 100.0	 0	 261.0	 0.96	 0.0	 0.0	 0.0	 0.0	 0.0	 0.0	 0.0	 0.0	 0.0	 0.0	 261.0; % NG
	445	 0.0	 0.0	 33.33	 -33.33	 1.0	 100.0	 0	 88.57	 73.57	 0.0	 0.0	 0.0	 0.0	 0.0	 0.0	 0.0	 0.0	 0.0	 0.0	 88.567; % NG
	446	 64.39	 91.28	 188.0	 -5.44	 1.0	 100.0	 1	 100.0	 28.78	 0.0	 0.0	 0.0	 0.0	 0.0	 0.0	 0.0	 0.0	 0.0	 0.0	 100.0; % NG
	447	 64.39	 95.78	 197.0	 -5.44	 1.0	 100.0	 1	 100.0	 28.78	 0.0	 0.0	 0.0	 0.0	 0.0	 0.0	 0.0	 0.0	 0.0	 0.0	 100.0; % COW
	448	 64.39	 86.28	 178.0	 -5.44	 1.0	 100.0	 1	 100.0	 28.78	 0.0	 0.0	 0.0	 0.0	 0.0	 0.0	 0.0	 0.0	 0.0	 0.0	 100.0; % NG
	449	 0.0	 0.0	 33.33	 -33.33	 1.0	 100.0	 0	 88.88	 73.87	 0.0	 0.0	 0.0	 0.0	 0.0	 0.0	 0.0	 0.0	 0.0	 0.0	 88.875; % COW
	452	 193.835	 0.0	 32.63	 -32.63	 1.0	 300.0	 1	 300.0	 87.67	 0.0	 0.0	 0.0	 0.0	 0.0	 0.0	 0.0	 0.0	 0.0	 0.0	 300.0; % COW
	458	 55.505	 0.0	 500.0	 -500.0	 1.0	 100.0	 1	 108.04	 2.97	 0.0	 0.0	 0.0	 0.0	 0.0	 0.0	 0.0	 0.0	 0.0	 0.0	 108.038; % NG
	460	 130.0	 0.0	 169.4	 -169.4	 1.0	 100.0	 1	 260.0	 0.0	 0.0	 0.0	 0.0	 0.0	 0.0	 0.0	 0.0	 0.0	 0.0	 0.0	 260.0; % NG
	467	 64.39	 96.28	 198.0	 -5.44	 1.0	 100.0	 1	 100.0	 28.78	 0.0	 0.0	 0.0	 0.0	 0.0	 0.0	 0.0	 0.0	 0.0	 0.0	 100.0; % NG
	468	 64.39	 92.28	 190.0	 -5.44	 1.0	 100.0	 1	 100.0	 28.78	 0.0	 0.0	 0.0	 0.0	 0.0	 0.0	 0.0	 0.0	 0.0	 0.0	 100.0; % NG
	469	 64.39	 92.28	 190.0	 -5.44	 1.0	 100.0	 1	 100.0	 28.78	 0.0	 0.0	 0.0	 0.0	 0.0	 0.0	 0.0	 0.0	 0.0	 0.0	 100.0; % COW
	470	 64.39	 84.78	 175.0	 -5.44	 1.0	 100.0	 1	 100.0	 28.78	 0.0	 0.0	 0.0	 0.0	 0.0	 0.0	 0.0	 0.0	 0.0	 0.0	 100.0; % NG
	471	 64.39	 84.78	 175.0	 -5.44	 1.0	 100.0	 1	 100.0	 28.78	 0.0	 0.0	 0.0	 0.0	 0.0	 0.0	 0.0	 0.0	 0.0	 0.0	 100.0; % NG
	472	 64.39	 94.78	 195.0	 -5.44	 1.0	 100.0	 1	 100.0	 28.78	 0.0	 0.0	 0.0	 0.0	 0.0	 0.0	 0.0	 0.0	 0.0	 0.0	 100.0; % PEL
	473	 64.39	 90.78	 187.0	 -5.44	 1.0	 100.0	 1	 100.0	 28.78	 0.0	 0.0	 0.0	 0.0	 0.0	 0.0	 0.0	 0.0	 0.0	 0.0	 100.0; % COW
	476	 60.31	 87.48	 184.0	 -9.04	 1.0	 100.0	 1	 100.0	 20.62	 0.0	 0.0	 0.0	 0.0	 0.0	 0.0	 0.0	 0.0	 0.0	 0.0	 100.0; % NG
	477	 55.425	 0.0	 26.98	 -26.98	 1.0	 100.0	 1	 100.0	 10.85	 0.0	 0.0	 0.0	 0.0	 0.0	 0.0	 0.0	 0.0	 0.0	 0.0	 100.0; % NG
	478	 60.31	 87.48	 184.0	 -9.04	 1.0	 100.0	 1	 100.0	 20.62	 0.0	 0.0	 0.0	 0.0	 0.0	 0.0	 0.0	 0.0	 0.0	 0.0	 100.0; % NG
	484	 139.5	 0.0	 189.9	 -189.9	 1.0	 100.0	 1	 279.0	 0.0	 0.0	 0.0	 0.0	 0.0	 0.0	 0.0	 0.0	 0.0	 0.0	 0.0	 279.0; % NG
	484	 0.0	 0.0	 33.33	 -33.33	 1.0	 100.0	 0	 256.22	 241.22	 0.0	 0.0	 0.0	 0.0	 0.0	 0.0	 0.0	 0.0	 0.0	 0.0	 256.221; % COW
	492	 131.5	 0.0	 101.08	 -101.08	 1.0	 100.0	 1	 263.0	 0.0	 0.0	 0.0	 0.0	 0.0	 0.0	 0.0	 0.0	 0.0	 0.0	 0.0	 263.0; % NG
	503	 141.5	 0.0	 127.5	 -127.5	 1.0	 100.0	 1	 283.0	 0.0	 0.0	 0.0	 0.0	 0.0	 0.0	 0.0	 0.0	 0.0	 0.0	 0.0	 283.0; % NG
	505	 64.39	 90.28	 186.0	 -5.44	 1.0	 100.0	 1	 100.0	 28.78	 0.0	 0.0	 0.0	 0.0	 0.0	 0.0	 0.0	 0.0	 0.0	 0.0	 100.0; % NG
	506	 64.39	 85.28	 176.0	 -5.44	 1.0	 100.0	 1	 100.0	 28.78	 0.0	 0.0	 0.0	 0.0	 0.0	 0.0	 0.0	 0.0	 0.0	 0.0	 100.0; % NG
	507	 64.39	 95.78	 197.0	 -5.44	 1.0	 100.0	 1	 100.0	 28.78	 0.0	 0.0	 0.0	 0.0	 0.0	 0.0	 0.0	 0.0	 0.0	 0.0	 100.0; % COW
	508	 64.39	 87.28	 180.0	 -5.44	 1.0	 100.0	 1	 100.0	 28.78	 0.0	 0.0	 0.0	 0.0	 0.0	 0.0	 0.0	 0.0	 0.0	 0.0	 100.0; % NG
	509	 64.39	 87.28	 180.0	 -5.44	 1.0	 100.0	 1	 100.0	 28.78	 0.0	 0.0	 0.0	 0.0	 0.0	 0.0	 0.0	 0.0	 0.0	 0.0	 100.0; % NG
	510	 64.39	 86.28	 178.0	 -5.44	 1.0	 100.0	 1	 100.0	 28.78	 0.0	 0.0	 0.0	 0.0	 0.0	 0.0	 0.0	 0.0	 0.0	 0.0	 100.0; % COW
	511	 64.39	 86.28	 178.0	 -5.44	 1.0	 100.0	 1	 100.0	 28.78	 0.0	 0.0	 0.0	 0.0	 0.0	 0.0	 0.0	 0.0	 0.0	 0.0	 100.0; % NG
	514	 64.39	 94.28	 194.0	 -5.44	 1.0	 100.0	 1	 100.0	 28.78	 0.0	 0.0	 0.0	 0.0	 0.0	 0.0	 0.0	 0.0	 0.0	 0.0	 100.0; % NG
	515	 64.39	 88.78	 183.0	 -5.44	 1.0	 100.0	 1	 100.0	 28.78	 0.0	 0.0	 0.0	 0.0	 0.0	 0.0	 0.0	 0.0	 0.0	 0.0	 100.0; % NG
	516	 63.655	 6.0	 188.0	 -176.0	 1.0	 100.0	 1	 100.0	 27.31	 0.0	 0.0	 0.0	 0.0	 0.0	 0.0	 0.0	 0.0	 0.0	 0.0	 100.0; % NG
	517	 63.655	 4.5	 189.0	 -180.0	 1.0	 100.0	 1	 100.0	 27.31	 0.0	 0.0	 0.0	 0.0	 0.0	 0.0	 0.0	 0.0	 0.0	 0.0	 100.0; % NG
	518	 63.655	 15.5	 198.0	 -167.0	 1.0	 100.0	 1	 100.0	 27.31	 0.0	 0.0	 0.0	 0.0	 0.0	 0.0	 0.0	 0.0	 0.0	 0.0	 100.0; % NG
	520	 57.9	 0.0	 20.46	 -20.46	 1.0	 100.0	 1	 100.0	 15.8	 0.0	 0.0	 0.0	 0.0	 0.0	 0.0	 0.0	 0.0	 0.0	 0.0	 100.0; % NG
	521	 57.9	 0.0	 20.46	 -20.46	 1.0	 100.0	 1	 100.0	 15.8	 0.0	 0.0	 0.0	 0.0	 0.0	 0.0	 0.0	 0.0	 0.0	 0.0	 100.0; % NG
	522	 117.485	 86.045	 175.0	 -2.91	 1.0	 200.0	 1	 200.0	 34.97	 0.0	 0.0	 0.0	 0.0	 0.0	 0.0	 0.0	 0.0	 0.0	 0.0	 200.0; % NG
	523	 117.485	 93.545	 190.0	 -2.91	 1.0	 200.0	 1	 200.0	 34.97	 0.0	 0.0	 0.0	 0.0	 0.0	 0.0	 0.0	 0.0	 0.0	 0.0	 200.0; % NG
	524	 117.485	 93.545	 190.0	 -2.91	 1.0	 200.0	 1	 200.0	 34.97	 0.0	 0.0	 0.0	 0.0	 0.0	 0.0	 0.0	 0.0	 0.0	 0.0	 200.0; % COW
	525	 64.39	 86.78	 179.0	 -5.44	 1.0	 100.0	 1	 100.0	 28.78	 0.0	 0.0	 0.0	 0.0	 0.0	 0.0	 0.0	 0.0	 0.0	 0.0	 100.0; % NG
	527	 138.0	 0.0	 89.92	 -89.92	 1.0	 100.0	 1	 276.0	 0.0	 0.0	 0.0	 0.0	 0.0	 0.0	 0.0	 0.0	 0.0	 0.0	 0.0	 276.0; % NG
	527	 191.38	 0.0	 500.0	 -500.0	 1.0	 100.0	 1	 240.2	 142.56	 0.0	 0.0	 0.0	 0.0	 0.0	 0.0	 0.0	 0.0	 0.0	 0.0	 240.197; % NG
	534	 114.54	 0.0	 500.0	 -500.0	 1.0	 100.0	 1	 211.64	 17.44	 0.0	 0.0	 0.0	 0.0	 0.0	 0.0	 0.0	 0.0	 0.0	 0.0	 211.644; % NG
	536	 44.115	 0.0	 500.0	 -500.0	 1.0	 100.0	 1	 86.35	 1.88	 0.0	 0.0	 0.0	 0.0	 0.0	 0.0	 0.0	 0.0	 0.0	 0.0	 86.354; % PEL
	541	 130.0	 -16.555	 132.44	 -165.55	 1.0	 100.0	 1	 260.0	 0.0	 0.0	 0.0	 0.0	 0.0	 0.0	 0.0	 0.0	 0.0	 0.0	 0.0	 260.0; % NG
	562	 0.0	 0.0	 33.33	 -33.33	 1.0	 100.0	 0	 160.76	 145.76	 0.0	 0.0	 0.0	 0.0	 0.0	 0.0	 0.0	 0.0	 0.0	 0.0	 160.761; % NG
	564	 55.595	 0.0	 60.05	 -60.05	 1.0	 100.0	 1	 100.0	 11.19	 0.0	 0.0	 0.0	 0.0	 0.0	 0.0	 0.0	 0.0	 0.0	 0.0	 100.0; % COW
	567	 278.115	 0.0	 40.29	 -40.29	 1.0	 400.0	 1	 415.0	 141.23	 0.0	 0.0	 0.0	 0.0	 0.0	 0.0	 0.0	 0.0	 0.0	 0.0	 415.0; % NG
	578	 0.0	 0.0	 33.33	 -33.33	 1.0	 100.0	 0	 200.76	 185.77	 0.0	 0.0	 0.0	 0.0	 0.0	 0.0	 0.0	 0.0	 0.0	 0.0	 200.765; % COW
	579	 128.5	 0.0	 60.96	 -60.96	 1.0	 100.0	 1	 257.0	 0.0	 0.0	 0.0	 0.0	 0.0	 0.0	 0.0	 0.0	 0.0	 0.0	 0.0	 257.0; % NG
	581	 137.0	 8.915	 89.15	 -71.32	 1.0	 100.0	 1	 274.0	 0.0	 0.0	 0.0	 0.0	 0.0	 0.0	 0.0	 0.0	 0.0	 0.0	 0.0	 274.0; % COW
	589	 27.77	 0.0	 500.0	 -500.0	 1.0	 100.0	 1	 41.8	 13.74	 0.0	 0.0	 0.0	 0.0	 0.0	 0.0	 0.0	 0.0	 0.0	 0.0	 41.796; % NG
	590	 140.0	 0.0	 77.68	 -77.68	 1.0	 100.0	 1	 280.0	 0.0	 0.0	 0.0	 0.0	 0.0	 0.0	 0.0	 0.0	 0.0	 0.0	 0.0	 280.0; % NG
	590	 0.0	 0.0	 33.33	 -33.33	 1.0	 100.0	 0	 96.24	 81.24	 0.0	 0.0	 0.0	 0.0	 0.0	 0.0	 0.0	 0.0	 0.0	 0.0	 96.242; % NG
	592	 921.475	 0.0	 500.0	 -500.0	 1.0	 100.0	 1	 1105.77	 737.18	 0.0	 0.0	 0.0	 0.0	 0.0	 0.0	 0.0	 0.0	 0.0	 0.0	 1105.772; % NG
	594	 55.595	 0.0	 60.05	 -60.05	 1.0	 100.0	 1	 100.0	 11.19	 0.0	 0.0	 0.0	 0.0	 0.0	 0.0	 0.0	 0.0	 0.0	 0.0	 100.0; % NG
	595	 27.575	 0.0	 500.0	 -500.0	 1.0	 100.0	 1	 41.89	 13.26	 0.0	 0.0	 0.0	 0.0	 0.0	 0.0	 0.0	 0.0	 0.0	 0.0	 41.894; % NG
	603	 134.0	 14.97	 149.7	 -119.76	 1.0	 100.0	 1	 268.0	 0.0	 0.0	 0.0	 0.0	 0.0	 0.0	 0.0	 0.0	 0.0	 0.0	 0.0	 268.0; % NG
	606	 250.0	 0.0	 40.06	 -40.06	 1.0	 400.0	 1	 400.0	 100.0	 0.0	 0.0	 0.0	 0.0	 0.0	 0.0	 0.0	 0.0	 0.0	 0.0	 400.0; % NG
	610	 20.23	 0.0	 500.0	 -500.0	 1.0	 100.0	 1	 28.91	 11.55	 0.0	 0.0	 0.0	 0.0	 0.0	 0.0	 0.0	 0.0	 0.0	 0.0	 28.906; % COW
	613	 250.0	 0.0	 40.06	 -40.06	 1.0	 400.0	 1	 400.0	 100.0	 0.0	 0.0	 0.0	 0.0	 0.0	 0.0	 0.0	 0.0	 0.0	 0.0	 400.0; % COW
	617	 55.595	 0.0	 60.05	 -60.05	 1.0	 100.0	 1	 100.0	 11.19	 0.0	 0.0	 0.0	 0.0	 0.0	 0.0	 0.0	 0.0	 0.0	 0.0	 100.0; % COW
	618	 26.5	 0.0	 500.0	 -500.0	 1.0	 100.0	 1	 42.05	 10.95	 0.0	 0.0	 0.0	 0.0	 0.0	 0.0	 0.0	 0.0	 0.0	 0.0	 42.049; % NG
	620	 141.0	 0.0	 214.58	 -214.58	 1.0	 100.0	 1	 282.0	 0.0	 0.0	 0.0	 0.0	 0.0	 0.0	 0.0	 0.0	 0.0	 0.0	 0.0	 282.0; % NG
...
];

%% generator cost data
%	2	startup	shutdown	n	c(n-1)	...	c0
mpc.gencost = [
2	0.0	0.0	3	0.2	49.209653	0.000000;	%	NG
2	0.0	0.0	3	0.2	34.006675	0.000000;	%	NG
2	0.0	0.0	3	0.2	25.106965	0.000000;	%	COW
2	0.0	0.0	3	0.2	58.206079	0.000000;	%	NG
2	0.0	0.0	3	0.2	9.893291	0.000000;	%	COW
2	0.0	0.0	3	0.2	33.114280	0.000000;	%	NG
2	0.0	0.0	3	0.2	35.257322	0.000000;	%	NG
2	0.0	0.0	3	0.2	40.297111	0.000000;	%	NG
2	0.0	0.0	3	0.2	21.658659	0.000000;	%	COW
2	0.0	0.0	3	0.2	34.442063	0.000000;	%	NG
2	0.0	0.0	3	0.2	106.974537	0.000000;	%	PEL
2	0.0	0.0	3	0.2	16.121270	0.000000;	%	COW
2	0.0	0.0	3	0.2	6.211727	0.000000;	%	COW
2	0.0	0.0	3	0.2	37.825795	0.000000;	%	NG
2	0.0	0.0	3	0.2	6.721011	0.000000;	%	NUC
2	0.0	0.0	3	0.2	23.763503	0.000000;	%	COW
2	0.0	0.0	3	0.2	32.182059	0.000000;	%	NG
2	0.0	0.0	3	0.2	28.431035	0.000000;	%	NG
2	0.0	0.0	3	0.2	29.655946	0.000000;	%	NG
2	0.0	0.0	3	0.2	21.564734	0.000000;	%	NG
2	0.0	0.0	3	0.2	55.619684	0.000000;	%	NG
2	0.0	0.0	3	0.2	21.245865	0.000000;	%	COW
2	0.0	0.0	3	0.2	49.615255	0.000000;	%	NG
2	0.0	0.0	3	0.2	25.964519	0.000000;	%	NG
2	0.0	0.0	3	0.2	15.141744	0.000000;	%	NG
2	0.0	0.0	3	0.2	39.782771	0.000000;	%	NG
2	0.0	0.0	3	0.2	23.267202	0.000000;	%	NG
2	0.0	0.0	3	0.2	32.755385	0.000000;	%	NG
2	0.0	0.0	3	0.2	38.664369	0.000000;	%	NG
2	0.0	0.0	3	0.2	30.800511	0.000000;	%	NG
2	0.0	0.0	3	0.2	36.456662	0.000000;	%	NG
2	0.0	0.0	3	0.2	33.061085	0.000000;	%	COW
2	0.0	0.0	3	0.2	41.724068	0.000000;	%	COW
2	0.0	0.0	3	0.2	42.559991	0.000000;	%	NG
2	0.0	0.0	3	0.2	36.769437	0.000000;	%	NG
2	0.0	0.0	3	0.2	31.571515	0.000000;	%	NG
2	0.0	0.0	3	0.2	20.002982	0.000000;	%	COW
2	0.0	0.0	3	0.2	24.092809	0.000000;	%	COW
2	0.0	0.0	3	0.2	36.833360	0.000000;	%	NG
2	0.0	0.0	3	0.2	30.147327	0.000000;	%	NG
2	0.0	0.0	3	0.2	33.410756	0.000000;	%	COW
2	0.0	0.0	3	0.2	36.105149	0.000000;	%	NG
2	0.0	0.0	3	0.2	27.887633	0.000000;	%	COW
2	0.0	0.0	3	0.2	42.811060	0.000000;	%	NG
2	0.0	0.0	3	0.2	30.887733	0.000000;	%	COW
2	0.0	0.0	3	0.2	27.642350	0.000000;	%	NG
2	0.0	0.0	3	0.2	18.299407	0.000000;	%	COW
2	0.0	0.0	3	0.2	22.814280	0.000000;	%	COW
2	0.0	0.0	3	0.2	36.112918	0.000000;	%	NG
2	0.0	0.0	3	0.2	25.274362	0.000000;	%	COW
2	0.0	0.0	3	0.2	23.390264	0.000000;	%	COW
2	0.0	0.0	3	0.2	36.433389	0.000000;	%	COW
2	0.0	0.0	3	0.2	35.597394	0.000000;	%	NG
2	0.0	0.0	3	0.2	127.172409	0.000000;	%	PEL
2	0.0	0.0	3	0.2	18.622040	0.000000;	%	COW
2	0.0	0.0	3	0.2	29.688407	0.000000;	%	NG
2	0.0	0.0	3	0.2	27.030293	0.000000;	%	NG
2	0.0	0.0	3	0.2	36.074926	0.000000;	%	NG
2	0.0	0.0	3	0.2	31.049528	0.000000;	%	COW
2	0.0	0.0	3	0.2	40.352684	0.000000;	%	NG
2	0.0	0.0	3	0.2	22.113213	0.000000;	%	NG
2	0.0	0.0	3	0.2	41.474272	0.000000;	%	NG
2	0.0	0.0	3	0.2	18.686650	0.000000;	%	NG
2	0.0	0.0	3	0.2	37.654512	0.000000;	%	NG
2	0.0	0.0	3	0.2	44.694347	0.000000;	%	NG
2	0.0	0.0	3	0.2	50.574656	0.000000;	%	NG
2	0.0	0.0	3	0.2	26.589708	0.000000;	%	COW
2	0.0	0.0	3	0.2	123.137974	0.000000;	%	PEL
2	0.0	0.0	3	0.2	30.957930	0.000000;	%	COW
2	0.0	0.0	3	0.2	54.576482	0.000000;	%	NG
2	0.0	0.0	3	0.2	47.210091	0.000000;	%	NG
2	0.0	0.0	3	0.2	24.593260	0.000000;	%	COW
2	0.0	0.0	3	0.2	42.926155	0.000000;	%	NG
2	0.0	0.0	3	0.2	36.093637	0.000000;	%	NG
2	0.0	0.0	3	0.2	34.335218	0.000000;	%	NG
2	0.0	0.0	3	0.2	37.013250	0.000000;	%	NG
2	0.0	0.0	3	0.2	33.808341	0.000000;	%	COW
2	0.0	0.0	3	0.2	41.276018	0.000000;	%	COW
2	0.0	0.0	3	0.2	35.799907	0.000000;	%	NG
2	0.0	0.0	3	0.2	22.946272	0.000000;	%	COW
2	0.0	0.0	3	0.2	21.111529	0.000000;	%	NG
2	0.0	0.0	3	0.2	49.840539	0.000000;	%	NG
2	0.0	0.0	3	0.2	40.047328	0.000000;	%	NG
2	0.0	0.0	3	0.2	40.200939	0.000000;	%	NG
2	0.0	0.0	3	0.2	46.185017	0.000000;	%	NG
2	0.0	0.0	3	0.2	17.173776	0.000000;	%	COW
2	0.0	0.0	3	0.2	102.169631	0.000000;	%	PEL
2	0.0	0.0	3	0.2	25.776803	0.000000;	%	NG
2	0.0	0.0	3	0.2	21.547974	0.000000;	%	COW
2	0.0	0.0	3	0.2	30.728091	0.000000;	%	COW
2	0.0	0.0	3	0.2	36.335226	0.000000;	%	NG
2	0.0	0.0	3	0.2	35.818864	0.000000;	%	NG
2	0.0	0.0	3	0.2	38.054527	0.000000;	%	NG
2	0.0	0.0	3	0.2	27.151308	0.000000;	%	COW
2	0.0	0.0	3	0.2	115.321539	0.000000;	%	PEL
2	0.0	0.0	3	0.2	40.606135	0.000000;	%	NG
2	0.0	0.0	3	0.2	109.596651	0.000000;	%	PEL
2	0.0	0.0	3	0.2	45.466805	0.000000;	%	NG
2	0.0	0.0	3	0.2	27.408645	0.000000;	%	NG
2	0.0	0.0	3	0.2	23.664365	0.000000;	%	NG
2	0.0	0.0	3	0.2	31.685725	0.000000;	%	NG
2	0.0	0.0	3	0.2	31.046446	0.000000;	%	NG
2	0.0	0.0	3	0.2	43.133229	0.000000;	%	NG
2	0.0	0.0	3	0.2	34.074046	0.000000;	%	NG
2	0.0	0.0	3	0.2	36.965565	0.000000;	%	NG
2	0.0	0.0	3	0.2	28.653721	0.000000;	%	NG
2	0.0	0.0	3	0.2	36.061621	0.000000;	%	NG
2	0.0	0.0	3	0.2	113.738203	0.000000;	%	PEL
2	0.0	0.0	3	0.2	110.459544	0.000000;	%	PEL
2	0.0	0.0	3	0.2	52.896797	0.000000;	%	NG
2	0.0	0.0	3	0.2	45.969632	0.000000;	%	NG
2	0.0	0.0	3	0.2	40.423403	0.000000;	%	NG
2	0.0	0.0	3	0.2	32.205927	0.000000;	%	NG
2	0.0	0.0	3	0.2	48.363295	0.000000;	%	NG
2	0.0	0.0	3	0.2	10.331730	0.000000;	%	COW
2	0.0	0.0	3	0.2	42.207857	0.000000;	%	NG
2	0.0	0.0	3	0.2	43.528306	0.000000;	%	NG
2	0.0	0.0	3	0.2	20.831006	0.000000;	%	NG
2	0.0	0.0	3	0.2	43.297085	0.000000;	%	NG
2	0.0	0.0	3	0.2	24.932997	0.000000;	%	NG
2	0.0	0.0	3	0.2	29.943262	0.000000;	%	NG
2	0.0	0.0	3	0.2	111.273464	0.000000;	%	PEL
2	0.0	0.0	3	0.2	115.893786	0.000000;	%	PEL
2	0.0	0.0	3	0.2	122.245743	0.000000;	%	PEL
2	0.0	0.0	3	0.2	30.444911	0.000000;	%	COW
2	0.0	0.0	3	0.2	28.400393	0.000000;	%	NG
2	0.0	0.0	3	0.2	48.478920	0.000000;	%	NG
2	0.0	0.0	3	0.2	38.391035	0.000000;	%	NG
2	0.0	0.0	3	0.2	38.530634	0.000000;	%	NG
2	0.0	0.0	3	0.2	33.950482	0.000000;	%	NG
2	0.0	0.0	3	0.2	36.916502	0.000000;	%	NG
2	0.0	0.0	3	0.2	49.999603	0.000000;	%	NG
2	0.0	0.0	3	0.2	109.615473	0.000000;	%	PEL
2	0.0	0.0	3	0.2	29.319210	0.000000;	%	NG
2	0.0	0.0	3	0.2	51.496241	0.000000;	%	NG
2	0.0	0.0	3	0.2	32.858434	0.000000;	%	NG
2	0.0	0.0	3	0.2	27.988833	0.000000;	%	NG
2	0.0	0.0	3	0.2	53.621839	0.000000;	%	NG
2	0.0	0.0	3	0.2	29.943437	0.000000;	%	COW
2	0.0	0.0	3	0.2	37.282005	0.000000;	%	NG
2	0.0	0.0	3	0.2	33.149925	0.000000;	%	COW
2	0.0	0.0	3	0.2	9.550127	0.000000;	%	COW
2	0.0	0.0	3	0.2	51.520651	0.000000;	%	NG
2	0.0	0.0	3	0.2	31.285102	0.000000;	%	NG
2	0.0	0.0	3	0.2	40.238629	0.000000;	%	NG
2	0.0	0.0	3	0.2	37.058027	0.000000;	%	NG
2	0.0	0.0	3	0.2	25.550431	0.000000;	%	COW
2	0.0	0.0	3	0.2	42.819949	0.000000;	%	NG
2	0.0	0.0	3	0.2	49.936441	0.000000;	%	NG
2	0.0	0.0	3	0.2	123.005260	0.000000;	%	PEL
2	0.0	0.0	3	0.2	27.554622	0.000000;	%	COW
2	0.0	0.0	3	0.2	49.702657	0.000000;	%	NG
2	0.0	0.0	3	0.2	38.120358	0.000000;	%	NG
2	0.0	0.0	3	0.2	28.348056	0.000000;	%	NG
2	0.0	0.0	3	0.2	16.674337	0.000000;	%	NG
2	0.0	0.0	3	0.2	34.566358	0.000000;	%	COW
2	0.0	0.0	3	0.2	32.917035	0.000000;	%	NG
2	0.0	0.0	3	0.2	32.866061	0.000000;	%	NG
2	0.0	0.0	3	0.2	29.628927	0.000000;	%	NG
2	0.0	0.0	3	0.2	52.387530	0.000000;	%	NG
2	0.0	0.0	3	0.2	18.461037	0.000000;	%	COW
2	0.0	0.0	3	0.2	11.180393	0.000000;	%	NG
2	0.0	0.0	3	0.2	24.316194	0.000000;	%	NG
2	0.0	0.0	3	0.2	27.890043	0.000000;	%	COW
2	0.0	0.0	3	0.2	42.831659	0.000000;	%	NG
2	0.0	0.0	3	0.2	36.344624	0.000000;	%	NG
2	0.0	0.0	3	0.2	49.968699	0.000000;	%	NG
2	0.0	0.0	3	0.2	55.901992	0.000000;	%	NG
2	0.0	0.0	3	0.2	29.703926	0.000000;	%	NG
2	0.0	0.0	3	0.2	23.887364	0.000000;	%	NG
2	0.0	0.0	3	0.2	14.127180	0.000000;	%	NG
2	0.0	0.0	3	0.2	16.539684	0.000000;	%	NG
2	0.0	0.0	3	0.2	52.206650	0.000000;	%	NG
2	0.0	0.0	3	0.2	21.568533	0.000000;	%	NG
2	0.0	0.0	3	0.2	23.031481	0.000000;	%	COW
2	0.0	0.0	3	0.2	45.224593	0.000000;	%	NG
2	0.0	0.0	3	0.2	28.776922	0.000000;	%	NG
2	0.0	0.0	3	0.2	59.206890	0.000000;	%	NG
2	0.0	0.0	3	0.2	23.999807	0.000000;	%	NG
2	0.0	0.0	3	0.2	117.241998	0.000000;	%	PEL
2	0.0	0.0	3	0.2	35.782588	0.000000;	%	NG
2	0.0	0.0	3	0.2	25.037674	0.000000;	%	NG
2	0.0	0.0	3	0.2	33.660168	0.000000;	%	COW
2	0.0	0.0	3	0.2	30.843352	0.000000;	%	NG
2	0.0	0.0	3	0.2	30.205708	0.000000;	%	COW
2	0.0	0.0	3	0.2	35.327443	0.000000;	%	NG
2	0.0	0.0	3	0.2	38.419727	0.000000;	%	COW
2	0.0	0.0	3	0.2	52.278863	0.000000;	%	NG
2	0.0	0.0	3	0.2	23.831168	0.000000;	%	NG
2	0.0	0.0	3	0.2	35.550430	0.000000;	%	NG
2	0.0	0.0	3	0.2	12.053451	0.000000;	%	NG
2	0.0	0.0	3	0.2	37.389032	0.000000;	%	NG
2	0.0	0.0	3	0.2	24.649947	0.000000;	%	NG
2	0.0	0.0	3	0.2	25.950929	0.000000;	%	NG
2	0.0	0.0	3	0.2	20.640443	0.000000;	%	NG
2	0.0	0.0	3	0.2	20.018782	0.000000;	%	COW
2	0.0	0.0	3	0.2	21.654046	0.000000;	%	COW
2	0.0	0.0	3	0.2	40.552154	0.000000;	%	COW
2	0.0	0.0	3	0.2	51.575697	0.000000;	%	NG
2	0.0	0.0	3	0.2	44.001768	0.000000;	%	NG
...
];

%% storage data
%	bus	energy	energy_rating	charge_rating	discharge_rating	thermal_rating	qmin	qmax	r	x	standby_loss	status
mpc.storage = [
	1279	0.0	0.0	1.00	4276.8450	2138.4225	1539.6642	0.9	0.85	1000	-1000	1000	0.1	0.01	0	0	1;
	2054	0.0	0.0	1.00	2306.6700	1153.3350	830.4012	0.9	0.85	1000	-1000	1000	0.1	0.01	0	0	1;
	1049	0.0	0.0	1.00	2176.6500	1088.3250	783.5940	0.9	0.85	1000	-1000	1000	0.1	0.01	0	0	1;
	989	0.0	0.0	1.00	2044.9500	1022.4750	736.1820	0.9	0.85	1000	-1000	1000	0.1	0.01	0	0	1;
	1035	0.0	0.0	1.00	1745.6700	872.8350	628.4412	0.9	0.85	1000	-1000	1000	0.1	0.01	0	0	1;
	756	0.0	0.0	1.00	1492.7250	746.3625	537.3810	0.9	0.85	1000	-1000	1000	0.1	0.01	0	0	1;
	1016	0.0	0.0	1.00	1319.5800	659.7900	475.0488	0.9	0.85	1000	-1000	1000	0.1	0.01	0	0	1;
	2510	0.0	0.0	1.00	1162.0650	581.0325	418.3434	0.9	0.85	1000	-1000	1000	0.1	0.01	0	0	1;
	160	0.0	0.0	1.00	1041.5100	520.7550	374.9436	0.9	0.85	1000	-1000	1000	0.1	0.01	0	0	1;
	954	0.0	0.0	1.00	1002.0150	501.0075	360.7254	0.9	0.85	1000	-1000	1000	0.1	0.01	0	0	1;
	158	0.0	0.0	1.00	950.4450	475.2225	342.1602	0.9	0.85	1000	-1000	1000	0.1	0.01	0	0	1;
	1398	0.0	0.0	1.00	935.6550	467.8275	336.8358	0.9	0.85	1000	-1000	1000	0.1	0.01	0	0	1;
	1401	0.0	0.0	1.00	919.5000	459.7500	331.0200	0.9	0.85	1000	-1000	1000	0.1	0.01	0	0	1;
	2460	0.0	0.0	1.00	807.4500	403.7250	290.6820	0.9	0.85	1000	-1000	1000	0.1	0.01	0	0	1;
	2400	0.0	0.0	1.00	789.0300	394.5150	284.0508	0.9	0.85	1000	-1000	1000	0.1	0.01	0	0	1;
	2570	0.0	0.0	1.00	785.8200	392.9100	282.8952	0.9	0.85	1000	-1000	1000	0.1	0.01	0	0	1;
	155	0.0	0.0	1.00	740.1000	370.0500	266.4360	0.9	0.85	1000	-1000	1000	0.1	0.01	0	0	1;
	2458	0.0	0.0	1.00	711.4500	355.7250	256.1220	0.9	0.85	1000	-1000	1000	0.1	0.01	0	0	1;
	2505	0.0	0.0	1.00	680.4750	340.2375	244.9710	0.9	0.85	1000	-1000	1000	0.1	0.01	0	0	1;
	177	0.0	0.0	1.00	674.3100	337.1550	242.7516	0.9	0.85	1000	-1000	1000	0.1	0.01	0	0	1;
	2073	0.0	0.0	1.00	667.3050	333.6525	240.2298	0.9	0.85	1000	-1000	1000	0.1	0.01	0	0	1;
	264	0.0	0.0	1.00	655.9650	327.9825	236.1474	0.9	0.85	1000	-1000	1000	0.1	0.01	0	0	1;
	64	0.0	0.0	1.00	619.5000	309.7500	223.0200	0.9	0.85	1000	-1000	1000	0.1	0.01	0	0	1;
	563	0.0	0.0	1.00	619.5000	309.7500	223.0200	0.9	0.85	1000	-1000	1000	0.1	0.01	0	0	1;
	2643	0.0	0.0	1.00	619.5000	309.7500	223.0200	0.9	0.85	1000	-1000	1000	0.1	0.01	0	0	1;
	2129	0.0	0.0	1.00	602.2200	301.1100	216.7992	0.9	0.85	1000	-1000	1000	0.1	0.01	0	0	1;
	2477	0.0	0.0	1.00	592.3500	296.1750	213.2460	0.9	0.85	1000	-1000	1000	0.1	0.01	0	0	1;
	2504	0.0	0.0	1.00	587.9850	293.9925	211.6746	0.9	0.85	1000	-1000	1000	0.1	0.01	0	0	1;
	1141	0.0	0.0	1.00	559.2000	279.6000	201.3120	0.9	0.85	1000	-1000	1000	0.1	0.01	0	0	1;
	173	0.0	0.0	1.00	549.9000	274.9500	197.9640	0.9	0.85	1000	-1000	1000	0.1	0.01	0	0	1;
	2118	0.0	0.0	1.00	549.3750	274.6875	197.7750	0.9	0.85	1000	-1000	1000	0.1	0.01	0	0	1;
	2128	0.0	0.0	1.00	538.4700	269.2350	193.8492	0.9	0.85	1000	-1000	1000	0.1	0.01	0	0	1;
	2480	0.0	0.0	1.00	524.4000	262.2000	188.7840	0.9	0.85	1000	-1000	1000	0.1	0.01	0	0	1;
	311	0.0	0.0	1.00	523.9500	261.9750	188.6220	0.9	0.85	1000	-1000	1000	0.1	0.01	0	0	1;
	1343	0.0	0.0	1.00	523.9500	261.9750	188.6220	0.9	0.85	1000	-1000	1000	0.1	0.01	0	0	1;
	2659	0.0	0.0	1.00	517.7700	258.8850	186.3972	0.9	0.85	1000	-1000	1000	0.1	0.01	0	0	1;
	2742	0.0	0.0	1.00	516.9300	258.4650	186.0948	0.9	0.85	1000	-1000	1000	0.1	0.01	0	0	1;
	283	0.0	0.0	1.00	515.8500	257.9250	185.7060	0.9	0.85	1000	-1000	1000	0.1	0.01	0	0	1;
	1315	0.0	0.0	1.00	515.8500	257.9250	185.7060	0.9	0.85	1000	-1000	1000	0.1	0.01	0	0	1;
	2116	0.0	0.0	1.00	513.8700	256.9350	184.9932	0.9	0.85	1000	-1000	1000	0.1	0.01	0	0	1;
	2648	0.0	0.0	1.00	504.5850	252.2925	181.6506	0.9	0.85	1000	-1000	1000	0.1	0.01	0	0	1;
	2528	0.0	0.0	1.00	500.7300	250.3650	180.2628	0.9	0.85	1000	-1000	1000	0.1	0.01	0	0	1;
	2739	0.0	0.0	1.00	474.1500	237.0750	170.6940	0.9	0.85	1000	-1000	1000	0.1	0.01	0	0	1;
	1034	0.0	0.0	1.00	458.4000	229.2000	165.0240	0.9	0.85	1000	-1000	1000	0.1	0.01	0	0	1;
	143	0.0	0.0	1.00	454.5600	227.2800	163.6416	0.9	0.85	1000	-1000	1000	0.1	0.01	0	0	1;
	144	0.0	0.0	1.00	450.3000	225.1500	162.1080	0.9	0.85	1000	-1000	1000	0.1	0.01	0	0	1;
	319	0.0	0.0	1.00	450.2100	225.1050	162.0756	0.9	0.85	1000	-1000	1000	0.1	0.01	0	0	1;
	1351	0.0	0.0	1.00	450.2100	225.1050	162.0756	0.9	0.85	1000	-1000	1000	0.1	0.01	0	0	1;
	140	0.0	0.0	1.00	431.5500	215.7750	155.3580	0.9	0.85	1000	-1000	1000	0.1	0.01	0	0	1;
	1517	0.0	0.0	1.00	414.3150	207.1575	149.1534	0.9	0.85	1000	-1000	1000	0.1	0.01	0	0	1;
	2094	0.0	0.0	1.00	407.5950	203.7975	146.7342	0.9	0.85	1000	-1000	1000	0.1	0.01	0	0	1;
	2080	0.0	0.0	1.00	403.2300	201.6150	145.1628	0.9	0.85	1000	-1000	1000	0.1	0.01	0	0	1;
	2093	0.0	0.0	1.00	403.2150	201.6075	145.1574	0.9	0.85	1000	-1000	1000	0.1	0.01	0	0	1;
	1393	0.0	0.0	1.00	402.3000	201.1500	144.8280	0.9	0.85	1000	-1000	1000	0.1	0.01	0	0	1;
	2487	0.0	0.0	1.00	393.9000	196.9500	141.8040	0.9	0.85	1000	-1000	1000	0.1	0.01	0	0	1;
	760	0.0	0.0	1.00	376.3650	188.1825	135.4914	0.9	0.85	1000	-1000	1000	0.1	0.01	0	0	1;
	2111	0.0	0.0	1.00	367.6500	183.8250	132.3540	0.9	0.85	1000	-1000	1000	0.1	0.01	0	0	1;
	2509	0.0	0.0	1.00	363.6000	181.8000	130.8960	0.9	0.85	1000	-1000	1000	0.1	0.01	0	0	1;
	2714	0.0	0.0	1.00	354.9000	177.4500	127.7640	0.9	0.85	1000	-1000	1000	0.1	0.01	0	0	1;
	1053	0.0	0.0	1.00	354.3000	177.1500	127.5480	0.9	0.85	1000	-1000	1000	0.1	0.01	0	0	1;
	2623	0.0	0.0	1.00	351.3000	175.6500	126.4680	0.9	0.85	1000	-1000	1000	0.1	0.01	0	0	1;
	2667	0.0	0.0	1.00	350.7000	175.3500	126.2520	0.9	0.85	1000	-1000	1000	0.1	0.01	0	0	1;
	2405	0.0	0.0	1.00	348.1500	174.0750	125.3340	0.9	0.85	1000	-1000	1000	0.1	0.01	0	0	1;
	1142	0.0	0.0	1.00	345.7500	172.8750	124.4700	0.9	0.85	1000	-1000	1000	0.1	0.01	0	0	1;
	135	0.0	0.0	1.00	343.5750	171.7875	123.6870	0.9	0.85	1000	-1000	1000	0.1	0.01	0	0	1;
	2488	0.0	0.0	1.00	343.5000	171.7500	123.6600	0.9	0.85	1000	-1000	1000	0.1	0.01	0	0	1;
	1372	0.0	0.0	1.00	339.4500	169.7250	122.2020	0.9	0.85	1000	-1000	1000	0.1	0.01	0	0	1;
	2478	0.0	0.0	1.00	339.1650	169.5825	122.0994	0.9	0.85	1000	-1000	1000	0.1	0.01	0	0	1;
	1292	0.0	0.0	1.00	335.2500	167.6250	120.6900	0.9	0.85	1000	-1000	1000	0.1	0.01	0	0	1;
	2726	0.0	0.0	1.00	334.6500	167.3250	120.4740	0.9	0.85	1000	-1000	1000	0.1	0.01	0	0	1;
	1057	0.0	0.0	1.00	333.9000	166.9500	120.2040	0.9	0.85	1000	-1000	1000	0.1	0.01	0	0	1;
	1800	0.0	0.0	1.00	330.3000	165.1500	118.9080	0.9	0.85	1000	-1000	1000	0.1	0.01	0	0	1;
	2098	0.0	0.0	1.00	327.1050	163.5525	117.7578	0.9	0.85	1000	-1000	1000	0.1	0.01	0	0	1;
	2131	0.0	0.0	1.00	327.1050	163.5525	117.7578	0.9	0.85	1000	-1000	1000	0.1	0.01	0	0	1;
	2087	0.0	0.0	1.00	325.9200	162.9600	117.3312	0.9	0.85	1000	-1000	1000	0.1	0.01	0	0	1;
	2088	0.0	0.0	1.00	325.9200	162.9600	117.3312	0.9	0.85	1000	-1000	1000	0.1	0.01	0	0	1;
	2048	0.0	0.0	1.00	324.6000	162.3000	116.8560	0.9	0.85	1000	-1000	1000	0.1	0.01	0	0	1;
	2117	0.0	0.0	1.00	321.7950	160.8975	115.8462	0.9	0.85	1000	-1000	1000	0.1	0.01	0	0	1;
	995	0.0	0.0	1.00	321.5250	160.7625	115.7490	0.9	0.85	1000	-1000	1000	0.1	0.01	0	0	1;
	2675	0.0	0.0	1.00	316.0500	158.0250	113.7780	0.9	0.85	1000	-1000	1000	0.1	0.01	0	0	1;
...